*SPEF "ieee 1481-1999"
*DESIGN "tt_um_wokwi_392873974467527681"
*DATE "04:06:31 Thursday October 31, 2024"
*VENDOR "The OpenROAD Project"
*PROGRAM "OpenROAD"
*VERSION "v2.0-16649-g40811f37f"
*DESIGN_FLOW "NAME_SCOPE LOCAL" "PIN_CAP NONE"
*DIVIDER /
*DELIMITER :
*BUS_DELIMITER []
*T_UNIT 1 NS
*C_UNIT 1 PF
*R_UNIT 1 OHM
*L_UNIT 1 HENRY

*NAME_MAP
*1 _00_
*2 _01_
*3 _02_
*4 _03_
*5 _04_
*6 _05_
*7 _06_
*8 _07_
*9 _08_
*10 _09_
*11 _10_
*12 _11_
*13 _12_
*14 _13_
*15 _14_
*16 _15_
*17 _16_
*18 _17_
*19 _18_
*20 _19_
*21 _20_
*22 _21_
*23 _22_
*24 _23_
*25 _24_
*26 _25_
*27 _26_
*28 _27_
*30 net35
*31 clk
*32 ena
*33 flipflop1\.d
*34 flipflop1\.q
*35 flipflop2\.d
*36 flipflop2\.q
*37 flipflop3\.d
*38 flipflop3\.q
*39 flipflop4\.d
*40 flipflop4\.q
*41 net10
*42 net11
*43 net13
*44 net7
*45 net8
*46 net9
*47 rst_n
*48 ui_in[0]
*49 ui_in[1]
*50 ui_in[2]
*51 ui_in[3]
*52 ui_in[4]
*53 ui_in[5]
*54 ui_in[6]
*55 ui_in[7]
*56 uio_in[0]
*57 uio_in[1]
*58 uio_in[2]
*59 uio_in[3]
*60 uio_in[4]
*61 uio_in[5]
*62 uio_in[6]
*63 uio_in[7]
*64 uio_oe[0]
*65 uio_oe[1]
*66 uio_oe[2]
*67 uio_oe[3]
*68 uio_oe[4]
*69 uio_oe[5]
*70 uio_oe[6]
*71 uio_oe[7]
*72 uio_out[0]
*73 uio_out[1]
*74 uio_out[2]
*75 uio_out[3]
*76 uio_out[4]
*77 uio_out[5]
*78 uio_out[6]
*79 uio_out[7]
*80 uo_out[0]
*81 uo_out[1]
*82 uo_out[2]
*83 uo_out[3]
*84 uo_out[4]
*85 uo_out[5]
*86 uo_out[6]
*87 uo_out[7]
*90 net1
*91 net2
*92 net3
*93 net4
*94 net5
*95 net6
*96 net12
*97 net14
*98 net15
*99 net16
*100 net17
*101 net18
*102 net19
*103 net20
*104 net21
*105 net22
*106 net23
*107 net24
*108 net25
*109 net26
*110 net27
*111 net28
*112 net29
*113 net30
*114 net31
*115 net32
*116 net33
*117 net34
*118 net36
*119 net37
*120 net38
*121 net39
*122 _30_
*123 _31_
*124 _32_
*125 _33_
*126 _34_
*127 _35_
*128 _36_
*129 _37_
*130 _38_
*131 _39_
*132 _40_
*133 _41_
*134 _42_
*135 _43_
*136 _44_
*137 _45_
*138 _46_
*139 _47_
*140 _48_
*141 _49_
*142 _50_
*143 _51_
*144 _52_
*145 _53_
*146 _54_
*147 _55_
*148 _56_
*149 _57_
*150 _58_
*151 _59_
*152 _60_
*153 _61_
*154 _62_
*155 _63_
*156 FILLER_0_0
*157 _87__29
*158 _66_
*159 _67_
*160 _68_
*161 _69_
*162 _70_
*163 _71_
*164 _72_
*165 _73_
*166 _74_
*167 _75_
*168 _76_
*169 _77_
*170 _78_
*171 _79_
*172 _80_
*173 _81_
*174 _82_
*175 _83_
*176 _84_
*177 _85_
*178 _86_
*179 _87_
*180 _88_
*181 _89_
*182 flipflop1\.q\$_DFF_P_
*183 flipflop2\.q\$_DFF_N_
*184 flipflop3\.q\$_DFF_N_
*185 flipflop4\.q\$_DFF_N_
*186 input1
*187 input2
*188 input3
*189 input4
*190 output5
*191 output6
*192 output7
*193 output8
*194 output9
*195 output10
*196 output11
*197 fanout12
*198 _66__13
*199 _67__14
*200 _68__15
*201 _69__16
*202 _70__17
*203 _71__18
*204 _72__19
*205 _73__20
*206 _74__21
*207 _75__22
*208 _76__23
*209 _77__24
*210 _78__25
*211 _79__26
*212 _80__27
*213 _81__28
*214 flipflop1\.q\$_DFF_P__30
*215 flipflop2\.q\$_DFF_N__31
*216 flipflop3\.q\$_DFF_N__32
*217 flipflop4\.q\$_DFF_N__33
*218 FILLER_0_7
*219 FILLER_0_14
*220 FILLER_0_21
*221 FILLER_0_28
*222 FILLER_0_35
*223 FILLER_0_42
*224 FILLER_0_49
*225 FILLER_0_56
*226 FILLER_0_63
*227 FILLER_0_70
*228 FILLER_0_77
*229 FILLER_0_84
*230 FILLER_0_91
*231 FILLER_0_98
*232 FILLER_0_105
*233 FILLER_0_112
*234 FILLER_0_119
*235 FILLER_0_126
*236 FILLER_0_133
*237 FILLER_0_140
*238 FILLER_0_147
*239 FILLER_0_154
*240 FILLER_0_161
*241 FILLER_0_168
*242 FILLER_0_175
*243 FILLER_0_182
*244 FILLER_0_189
*245 FILLER_0_196
*246 FILLER_0_203
*247 FILLER_0_210
*248 FILLER_0_217
*249 FILLER_0_224
*250 FILLER_0_231
*251 FILLER_0_238
*252 FILLER_0_245
*253 FILLER_0_252
*254 FILLER_0_259
*255 FILLER_0_266
*256 FILLER_0_273
*257 FILLER_0_280
*258 FILLER_0_287
*259 FILLER_0_294
*260 FILLER_0_301
*261 FILLER_0_308
*262 FILLER_0_315
*263 FILLER_0_322
*264 FILLER_0_329
*265 FILLER_0_336
*266 FILLER_0_343
*267 FILLER_0_350
*268 FILLER_0_357
*269 FILLER_0_364
*270 FILLER_0_371
*271 FILLER_0_378
*272 FILLER_0_385
*273 FILLER_0_392
*274 FILLER_0_399
*275 FILLER_0_406
*276 FILLER_0_413
*277 FILLER_0_420
*278 FILLER_0_427
*279 FILLER_0_429
*280 FILLER_1_0
*281 FILLER_1_7
*282 FILLER_1_14
*283 FILLER_1_21
*284 FILLER_1_28
*285 FILLER_1_35
*286 FILLER_1_42
*287 FILLER_1_49
*288 FILLER_1_56
*289 FILLER_1_63
*290 FILLER_1_70
*291 FILLER_1_77
*292 FILLER_1_84
*293 FILLER_1_91
*294 FILLER_1_98
*295 FILLER_1_105
*296 FILLER_1_112
*297 FILLER_1_119
*298 FILLER_1_126
*299 FILLER_1_133
*300 FILLER_1_140
*301 FILLER_1_147
*302 FILLER_1_154
*303 FILLER_1_161
*304 FILLER_1_168
*305 FILLER_1_175
*306 FILLER_1_182
*307 FILLER_1_189
*308 FILLER_1_196
*309 FILLER_1_203
*310 FILLER_1_210
*311 FILLER_1_217
*312 FILLER_1_224
*313 FILLER_1_231
*314 FILLER_1_238
*315 FILLER_1_245
*316 FILLER_1_252
*317 FILLER_1_259
*318 FILLER_1_266
*319 FILLER_1_273
*320 FILLER_1_280
*321 FILLER_1_287
*322 FILLER_1_294
*323 FILLER_1_301
*324 FILLER_1_308
*325 FILLER_1_315
*326 FILLER_1_322
*327 FILLER_1_329
*328 FILLER_1_336
*329 FILLER_1_343
*330 FILLER_1_350
*331 FILLER_1_357
*332 FILLER_1_364
*333 FILLER_1_371
*334 FILLER_1_378
*335 FILLER_1_385
*336 FILLER_1_392
*337 FILLER_1_399
*338 FILLER_1_406
*339 FILLER_1_413
*340 FILLER_1_420
*341 FILLER_1_427
*342 FILLER_1_429
*343 FILLER_2_0
*344 FILLER_2_7
*345 FILLER_2_14
*346 FILLER_2_21
*347 FILLER_2_28
*348 FILLER_2_35
*349 FILLER_2_42
*350 FILLER_2_49
*351 FILLER_2_56
*352 FILLER_2_63
*353 FILLER_2_70
*354 FILLER_2_77
*355 FILLER_2_84
*356 FILLER_2_91
*357 FILLER_2_98
*358 FILLER_2_105
*359 FILLER_2_112
*360 FILLER_2_119
*361 FILLER_2_126
*362 FILLER_2_133
*363 FILLER_2_140
*364 FILLER_2_147
*365 FILLER_2_154
*366 FILLER_2_161
*367 FILLER_2_168
*368 FILLER_2_175
*369 FILLER_2_182
*370 FILLER_2_189
*371 FILLER_2_196
*372 FILLER_2_203
*373 FILLER_2_210
*374 FILLER_2_217
*375 FILLER_2_224
*376 FILLER_2_231
*377 FILLER_2_238
*378 FILLER_2_245
*379 FILLER_2_252
*380 FILLER_2_259
*381 FILLER_2_266
*382 FILLER_2_273
*383 FILLER_2_280
*384 FILLER_2_287
*385 FILLER_2_294
*386 FILLER_2_301
*387 FILLER_2_308
*388 FILLER_2_315
*389 FILLER_2_322
*390 FILLER_2_329
*391 FILLER_2_336
*392 FILLER_2_343
*393 FILLER_2_350
*394 FILLER_2_357
*395 FILLER_2_364
*396 FILLER_2_371
*397 FILLER_2_378
*398 FILLER_2_385
*399 FILLER_2_392
*400 FILLER_2_399
*401 FILLER_2_406
*402 FILLER_2_413
*403 FILLER_2_420
*404 FILLER_2_427
*405 FILLER_2_429
*406 FILLER_3_0
*407 FILLER_3_7
*408 FILLER_3_14
*409 FILLER_3_21
*410 FILLER_3_28
*411 FILLER_3_35
*412 FILLER_3_42
*413 FILLER_3_49
*414 FILLER_3_56
*415 FILLER_3_63
*416 FILLER_3_70
*417 FILLER_3_77
*418 FILLER_3_84
*419 FILLER_3_91
*420 FILLER_3_98
*421 FILLER_3_105
*422 FILLER_3_112
*423 FILLER_3_119
*424 FILLER_3_126
*425 FILLER_3_133
*426 FILLER_3_140
*427 FILLER_3_147
*428 FILLER_3_154
*429 FILLER_3_161
*430 FILLER_3_168
*431 FILLER_3_175
*432 FILLER_3_182
*433 FILLER_3_189
*434 FILLER_3_196
*435 FILLER_3_203
*436 FILLER_3_210
*437 FILLER_3_217
*438 FILLER_3_224
*439 FILLER_3_231
*440 FILLER_3_238
*441 FILLER_3_245
*442 FILLER_3_252
*443 FILLER_3_259
*444 FILLER_3_266
*445 FILLER_3_273
*446 FILLER_3_280
*447 FILLER_3_287
*448 FILLER_3_294
*449 FILLER_3_301
*450 FILLER_3_308
*451 FILLER_3_315
*452 FILLER_3_322
*453 FILLER_3_329
*454 FILLER_3_336
*455 FILLER_3_343
*456 FILLER_3_350
*457 FILLER_3_357
*458 FILLER_3_364
*459 FILLER_3_371
*460 FILLER_3_378
*461 FILLER_3_385
*462 FILLER_3_392
*463 FILLER_3_399
*464 FILLER_3_406
*465 FILLER_3_413
*466 FILLER_3_420
*467 FILLER_3_427
*468 FILLER_3_429
*469 FILLER_4_0
*470 FILLER_4_7
*471 FILLER_4_14
*472 FILLER_4_21
*473 FILLER_4_28
*474 FILLER_4_35
*475 FILLER_4_42
*476 FILLER_4_49
*477 FILLER_4_56
*478 FILLER_4_63
*479 FILLER_4_70
*480 FILLER_4_77
*481 FILLER_4_84
*482 FILLER_4_91
*483 FILLER_4_98
*484 FILLER_4_105
*485 FILLER_4_112
*486 FILLER_4_119
*487 FILLER_4_126
*488 FILLER_4_133
*489 FILLER_4_140
*490 FILLER_4_147
*491 FILLER_4_154
*492 FILLER_4_161
*493 FILLER_4_168
*494 FILLER_4_175
*495 FILLER_4_182
*496 FILLER_4_189
*497 FILLER_4_196
*498 FILLER_4_203
*499 FILLER_4_210
*500 FILLER_4_217
*501 FILLER_4_224
*502 FILLER_4_231
*503 FILLER_4_238
*504 FILLER_4_245
*505 FILLER_4_252
*506 FILLER_4_259
*507 FILLER_4_266
*508 FILLER_4_273
*509 FILLER_4_280
*510 FILLER_4_287
*511 FILLER_4_294
*512 FILLER_4_301
*513 FILLER_4_308
*514 FILLER_4_315
*515 FILLER_4_322
*516 FILLER_4_329
*517 FILLER_4_336
*518 FILLER_4_343
*519 FILLER_4_350
*520 FILLER_4_357
*521 FILLER_4_364
*522 FILLER_4_371
*523 FILLER_4_378
*524 FILLER_4_385
*525 FILLER_4_392
*526 FILLER_4_399
*527 FILLER_4_406
*528 FILLER_4_413
*529 FILLER_4_420
*530 FILLER_4_427
*531 FILLER_4_429
*532 FILLER_5_0
*533 FILLER_5_7
*534 FILLER_5_14
*535 FILLER_5_21
*536 FILLER_5_28
*537 FILLER_5_35
*538 FILLER_5_42
*539 FILLER_5_49
*540 FILLER_5_56
*541 FILLER_5_63
*542 FILLER_5_70
*543 FILLER_5_77
*544 FILLER_5_84
*545 FILLER_5_91
*546 FILLER_5_98
*547 FILLER_5_105
*548 FILLER_5_112
*549 FILLER_5_119
*550 FILLER_5_126
*551 FILLER_5_133
*552 FILLER_5_140
*553 FILLER_5_147
*554 FILLER_5_154
*555 FILLER_5_161
*556 FILLER_5_168
*557 FILLER_5_175
*558 FILLER_5_182
*559 FILLER_5_189
*560 FILLER_5_196
*561 FILLER_5_203
*562 FILLER_5_210
*563 FILLER_5_217
*564 FILLER_5_224
*565 FILLER_5_231
*566 FILLER_5_238
*567 FILLER_5_245
*568 FILLER_5_252
*569 FILLER_5_259
*570 FILLER_5_266
*571 FILLER_5_273
*572 FILLER_5_280
*573 FILLER_5_287
*574 FILLER_5_294
*575 FILLER_5_301
*576 FILLER_5_308
*577 FILLER_5_315
*578 FILLER_5_322
*579 FILLER_5_329
*580 FILLER_5_336
*581 FILLER_5_343
*582 FILLER_5_350
*583 FILLER_5_357
*584 FILLER_5_364
*585 FILLER_5_371
*586 FILLER_5_378
*587 FILLER_5_385
*588 FILLER_5_392
*589 FILLER_5_399
*590 FILLER_5_406
*591 FILLER_5_413
*592 FILLER_5_420
*593 FILLER_5_427
*594 FILLER_5_429
*595 FILLER_6_0
*596 FILLER_6_7
*597 FILLER_6_14
*598 FILLER_6_21
*599 FILLER_6_28
*600 FILLER_6_35
*601 FILLER_6_42
*602 FILLER_6_49
*603 FILLER_6_56
*604 FILLER_6_63
*605 FILLER_6_70
*606 FILLER_6_77
*607 FILLER_6_84
*608 FILLER_6_91
*609 FILLER_6_98
*610 FILLER_6_105
*611 FILLER_6_112
*612 FILLER_6_119
*613 FILLER_6_126
*614 FILLER_6_133
*615 FILLER_6_140
*616 FILLER_6_147
*617 FILLER_6_154
*618 FILLER_6_161
*619 FILLER_6_168
*620 FILLER_6_175
*621 FILLER_6_182
*622 FILLER_6_189
*623 FILLER_6_196
*624 FILLER_6_203
*625 FILLER_6_210
*626 FILLER_6_217
*627 FILLER_6_224
*628 FILLER_6_231
*629 FILLER_6_238
*630 FILLER_6_245
*631 FILLER_6_252
*632 FILLER_6_259
*633 FILLER_6_266
*634 FILLER_6_273
*635 FILLER_6_280
*636 FILLER_6_287
*637 FILLER_6_294
*638 FILLER_6_301
*639 FILLER_6_308
*640 FILLER_6_315
*641 FILLER_6_322
*642 FILLER_6_329
*643 FILLER_6_336
*644 FILLER_6_343
*645 FILLER_6_350
*646 FILLER_6_357
*647 FILLER_6_364
*648 FILLER_6_371
*649 FILLER_6_378
*650 FILLER_6_385
*651 FILLER_6_392
*652 FILLER_6_399
*653 FILLER_6_406
*654 FILLER_6_413
*655 FILLER_6_420
*656 FILLER_6_427
*657 FILLER_6_429
*658 FILLER_7_0
*659 FILLER_7_7
*660 FILLER_7_14
*661 FILLER_7_21
*662 FILLER_7_28
*663 FILLER_7_35
*664 FILLER_7_42
*665 FILLER_7_49
*666 FILLER_7_56
*667 FILLER_7_63
*668 FILLER_7_70
*669 FILLER_7_77
*670 FILLER_7_84
*671 FILLER_7_91
*672 FILLER_7_98
*673 FILLER_7_105
*674 FILLER_7_112
*675 FILLER_7_119
*676 FILLER_7_126
*677 FILLER_7_133
*678 FILLER_7_140
*679 FILLER_7_147
*680 FILLER_7_154
*681 FILLER_7_161
*682 FILLER_7_168
*683 FILLER_7_175
*684 FILLER_7_182
*685 FILLER_7_189
*686 FILLER_7_196
*687 FILLER_7_203
*688 FILLER_7_210
*689 FILLER_7_217
*690 FILLER_7_224
*691 FILLER_7_231
*692 FILLER_7_238
*693 FILLER_7_245
*694 FILLER_7_252
*695 FILLER_7_259
*696 FILLER_7_266
*697 FILLER_7_273
*698 FILLER_7_280
*699 FILLER_7_287
*700 FILLER_7_294
*701 FILLER_7_301
*702 FILLER_7_308
*703 FILLER_7_315
*704 FILLER_7_322
*705 FILLER_7_329
*706 FILLER_7_336
*707 FILLER_7_343
*708 FILLER_7_350
*709 FILLER_7_357
*710 FILLER_7_364
*711 FILLER_7_371
*712 FILLER_7_378
*713 FILLER_7_385
*714 FILLER_7_392
*715 FILLER_7_399
*716 FILLER_7_406
*717 FILLER_7_413
*718 FILLER_7_420
*719 FILLER_7_427
*720 FILLER_7_429
*721 FILLER_8_0
*722 FILLER_8_7
*723 FILLER_8_14
*724 FILLER_8_21
*725 FILLER_8_28
*726 FILLER_8_35
*727 FILLER_8_42
*728 FILLER_8_49
*729 FILLER_8_56
*730 FILLER_8_63
*731 FILLER_8_70
*732 FILLER_8_77
*733 FILLER_8_84
*734 FILLER_8_91
*735 FILLER_8_98
*736 FILLER_8_105
*737 FILLER_8_112
*738 FILLER_8_119
*739 FILLER_8_126
*740 FILLER_8_133
*741 FILLER_8_140
*742 FILLER_8_147
*743 FILLER_8_154
*744 FILLER_8_161
*745 FILLER_8_168
*746 FILLER_8_175
*747 FILLER_8_182
*748 FILLER_8_189
*749 FILLER_8_196
*750 FILLER_8_203
*751 FILLER_8_210
*752 FILLER_8_217
*753 FILLER_8_224
*754 FILLER_8_231
*755 FILLER_8_238
*756 FILLER_8_245
*757 FILLER_8_252
*758 FILLER_8_259
*759 FILLER_8_266
*760 FILLER_8_273
*761 FILLER_8_280
*762 FILLER_8_287
*763 FILLER_8_294
*764 FILLER_8_301
*765 FILLER_8_308
*766 FILLER_8_315
*767 FILLER_8_322
*768 FILLER_8_329
*769 FILLER_8_336
*770 FILLER_8_343
*771 FILLER_8_350
*772 FILLER_8_357
*773 FILLER_8_364
*774 FILLER_8_371
*775 FILLER_8_378
*776 FILLER_8_385
*777 FILLER_8_392
*778 FILLER_8_399
*779 FILLER_8_406
*780 FILLER_8_413
*781 FILLER_8_420
*782 FILLER_8_427
*783 FILLER_8_429
*784 FILLER_9_0
*785 FILLER_9_7
*786 FILLER_9_14
*787 FILLER_9_21
*788 FILLER_9_28
*789 FILLER_9_35
*790 FILLER_9_42
*791 FILLER_9_49
*792 FILLER_9_56
*793 FILLER_9_63
*794 FILLER_9_70
*795 FILLER_9_77
*796 FILLER_9_84
*797 FILLER_9_91
*798 FILLER_9_98
*799 FILLER_9_105
*800 FILLER_9_112
*801 FILLER_9_119
*802 FILLER_9_126
*803 FILLER_9_133
*804 FILLER_9_140
*805 FILLER_9_147
*806 FILLER_9_154
*807 FILLER_9_161
*808 FILLER_9_168
*809 FILLER_9_175
*810 FILLER_9_182
*811 FILLER_9_189
*812 FILLER_9_196
*813 FILLER_9_203
*814 FILLER_9_210
*815 FILLER_9_217
*816 FILLER_9_224
*817 FILLER_9_231
*818 FILLER_9_238
*819 FILLER_9_245
*820 FILLER_9_252
*821 FILLER_9_259
*822 FILLER_9_266
*823 FILLER_9_273
*824 FILLER_9_280
*825 FILLER_9_287
*826 FILLER_9_294
*827 FILLER_9_301
*828 FILLER_9_308
*829 FILLER_9_315
*830 FILLER_9_322
*831 FILLER_9_329
*832 FILLER_9_336
*833 FILLER_9_343
*834 FILLER_9_350
*835 FILLER_9_357
*836 FILLER_9_364
*837 FILLER_9_371
*838 FILLER_9_378
*839 FILLER_9_385
*840 FILLER_9_392
*841 FILLER_9_399
*842 FILLER_9_406
*843 FILLER_9_413
*844 FILLER_9_420
*845 FILLER_9_427
*846 FILLER_9_429
*847 FILLER_10_0
*848 FILLER_10_7
*849 FILLER_10_14
*850 FILLER_10_21
*851 FILLER_10_28
*852 FILLER_10_35
*853 FILLER_10_42
*854 FILLER_10_49
*855 FILLER_10_56
*856 FILLER_10_63
*857 FILLER_10_70
*858 FILLER_10_77
*859 FILLER_10_84
*860 FILLER_10_91
*861 FILLER_10_98
*862 FILLER_10_105
*863 FILLER_10_112
*864 FILLER_10_119
*865 FILLER_10_126
*866 FILLER_10_133
*867 FILLER_10_140
*868 FILLER_10_147
*869 FILLER_10_154
*870 FILLER_10_161
*871 FILLER_10_168
*872 FILLER_10_175
*873 FILLER_10_182
*874 FILLER_10_189
*875 FILLER_10_196
*876 FILLER_10_203
*877 FILLER_10_210
*878 FILLER_10_217
*879 FILLER_10_224
*880 FILLER_10_231
*881 FILLER_10_238
*882 FILLER_10_245
*883 FILLER_10_252
*884 FILLER_10_259
*885 FILLER_10_266
*886 FILLER_10_273
*887 FILLER_10_280
*888 FILLER_10_287
*889 FILLER_10_294
*890 FILLER_10_301
*891 FILLER_10_308
*892 FILLER_10_315
*893 FILLER_10_322
*894 FILLER_10_329
*895 FILLER_10_336
*896 FILLER_10_343
*897 FILLER_10_350
*898 FILLER_10_357
*899 FILLER_10_364
*900 FILLER_10_371
*901 FILLER_10_378
*902 FILLER_10_385
*903 FILLER_10_392
*904 FILLER_10_399
*905 FILLER_10_406
*906 FILLER_10_413
*907 FILLER_10_420
*908 FILLER_10_427
*909 FILLER_10_429
*910 FILLER_11_0
*911 FILLER_11_7
*912 FILLER_11_14
*913 FILLER_11_21
*914 FILLER_11_28
*915 FILLER_11_35
*916 FILLER_11_42
*917 FILLER_11_49
*918 FILLER_11_56
*919 FILLER_11_63
*920 FILLER_11_70
*921 FILLER_11_77
*922 FILLER_11_84
*923 FILLER_11_91
*924 FILLER_11_98
*925 FILLER_11_105
*926 FILLER_11_112
*927 FILLER_11_119
*928 FILLER_11_126
*929 FILLER_11_133
*930 FILLER_11_140
*931 FILLER_11_147
*932 FILLER_11_154
*933 FILLER_11_161
*934 FILLER_11_168
*935 FILLER_11_175
*936 FILLER_11_182
*937 FILLER_11_189
*938 FILLER_11_196
*939 FILLER_11_203
*940 FILLER_11_210
*941 FILLER_11_217
*942 FILLER_11_224
*943 FILLER_11_231
*944 FILLER_11_238
*945 FILLER_11_245
*946 FILLER_11_252
*947 FILLER_11_259
*948 FILLER_11_266
*949 FILLER_11_273
*950 FILLER_11_280
*951 FILLER_11_287
*952 FILLER_11_294
*953 FILLER_11_301
*954 FILLER_11_308
*955 FILLER_11_315
*956 FILLER_11_322
*957 FILLER_11_329
*958 FILLER_11_336
*959 FILLER_11_343
*960 FILLER_11_350
*961 FILLER_11_357
*962 FILLER_11_364
*963 FILLER_11_371
*964 FILLER_11_378
*965 FILLER_11_385
*966 FILLER_11_392
*967 FILLER_11_399
*968 FILLER_11_406
*969 FILLER_11_413
*970 FILLER_11_420
*971 FILLER_11_427
*972 FILLER_11_429
*973 FILLER_12_0
*974 FILLER_12_7
*975 FILLER_12_14
*976 FILLER_12_21
*977 FILLER_12_28
*978 FILLER_12_35
*979 FILLER_12_42
*980 FILLER_12_49
*981 FILLER_12_56
*982 FILLER_12_63
*983 FILLER_12_70
*984 FILLER_12_77
*985 FILLER_12_84
*986 FILLER_12_91
*987 FILLER_12_98
*988 FILLER_12_105
*989 FILLER_12_112
*990 FILLER_12_119
*991 FILLER_12_126
*992 FILLER_12_133
*993 FILLER_12_140
*994 FILLER_12_147
*995 FILLER_12_154
*996 FILLER_12_161
*997 FILLER_12_168
*998 FILLER_12_175
*999 FILLER_12_182
*1000 FILLER_12_189
*1001 FILLER_12_196
*1002 FILLER_12_203
*1003 FILLER_12_210
*1004 FILLER_12_217
*1005 FILLER_12_224
*1006 FILLER_12_231
*1007 FILLER_12_238
*1008 FILLER_12_245
*1009 FILLER_12_252
*1010 FILLER_12_259
*1011 FILLER_12_266
*1012 FILLER_12_273
*1013 FILLER_12_280
*1014 FILLER_12_287
*1015 FILLER_12_294
*1016 FILLER_12_301
*1017 FILLER_12_308
*1018 FILLER_12_315
*1019 FILLER_12_322
*1020 FILLER_12_329
*1021 FILLER_12_336
*1022 FILLER_12_343
*1023 FILLER_12_350
*1024 FILLER_12_357
*1025 FILLER_12_364
*1026 FILLER_12_371
*1027 FILLER_12_378
*1028 FILLER_12_385
*1029 FILLER_12_392
*1030 FILLER_12_399
*1031 FILLER_12_406
*1032 FILLER_12_413
*1033 FILLER_12_420
*1034 FILLER_12_427
*1035 FILLER_12_429
*1036 FILLER_13_0
*1037 FILLER_13_7
*1038 FILLER_13_14
*1039 FILLER_13_21
*1040 FILLER_13_28
*1041 FILLER_13_35
*1042 FILLER_13_42
*1043 FILLER_13_49
*1044 FILLER_13_56
*1045 FILLER_13_63
*1046 FILLER_13_70
*1047 FILLER_13_77
*1048 FILLER_13_84
*1049 FILLER_13_91
*1050 FILLER_13_98
*1051 FILLER_13_105
*1052 FILLER_13_112
*1053 FILLER_13_119
*1054 FILLER_13_126
*1055 FILLER_13_133
*1056 FILLER_13_140
*1057 FILLER_13_147
*1058 FILLER_13_154
*1059 FILLER_13_161
*1060 FILLER_13_168
*1061 FILLER_13_175
*1062 FILLER_13_182
*1063 FILLER_13_189
*1064 FILLER_13_196
*1065 FILLER_13_203
*1066 FILLER_13_210
*1067 FILLER_13_217
*1068 FILLER_13_224
*1069 FILLER_13_231
*1070 FILLER_13_238
*1071 FILLER_13_245
*1072 FILLER_13_252
*1073 FILLER_13_259
*1074 FILLER_13_266
*1075 FILLER_13_273
*1076 FILLER_13_280
*1077 FILLER_13_287
*1078 FILLER_13_294
*1079 FILLER_13_301
*1080 FILLER_13_308
*1081 FILLER_13_315
*1082 FILLER_13_322
*1083 FILLER_13_329
*1084 FILLER_13_336
*1085 FILLER_13_343
*1086 FILLER_13_350
*1087 FILLER_13_357
*1088 FILLER_13_364
*1089 FILLER_13_371
*1090 FILLER_13_378
*1091 FILLER_13_385
*1092 FILLER_13_392
*1093 FILLER_13_399
*1094 FILLER_13_406
*1095 FILLER_13_413
*1096 FILLER_13_420
*1097 FILLER_13_427
*1098 FILLER_13_429
*1099 FILLER_14_0
*1100 FILLER_14_7
*1101 FILLER_14_14
*1102 FILLER_14_21
*1103 FILLER_14_28
*1104 FILLER_14_35
*1105 FILLER_14_42
*1106 FILLER_14_49
*1107 FILLER_14_56
*1108 FILLER_14_63
*1109 FILLER_14_70
*1110 FILLER_14_77
*1111 FILLER_14_84
*1112 FILLER_14_91
*1113 FILLER_14_98
*1114 FILLER_14_105
*1115 FILLER_14_112
*1116 FILLER_14_119
*1117 FILLER_14_126
*1118 FILLER_14_133
*1119 FILLER_14_140
*1120 FILLER_14_147
*1121 FILLER_14_154
*1122 FILLER_14_161
*1123 FILLER_14_168
*1124 FILLER_14_175
*1125 FILLER_14_182
*1126 FILLER_14_189
*1127 FILLER_14_196
*1128 FILLER_14_203
*1129 FILLER_14_210
*1130 FILLER_14_217
*1131 FILLER_14_224
*1132 FILLER_14_231
*1133 FILLER_14_238
*1134 FILLER_14_245
*1135 FILLER_14_252
*1136 FILLER_14_259
*1137 FILLER_14_266
*1138 FILLER_14_273
*1139 FILLER_14_280
*1140 FILLER_14_287
*1141 FILLER_14_294
*1142 FILLER_14_301
*1143 FILLER_14_308
*1144 FILLER_14_315
*1145 FILLER_14_322
*1146 FILLER_14_329
*1147 FILLER_14_336
*1148 FILLER_14_343
*1149 FILLER_14_350
*1150 FILLER_14_357
*1151 FILLER_14_364
*1152 FILLER_14_371
*1153 FILLER_14_378
*1154 FILLER_14_385
*1155 FILLER_14_392
*1156 FILLER_14_399
*1157 FILLER_14_406
*1158 FILLER_14_413
*1159 FILLER_14_420
*1160 FILLER_14_427
*1161 FILLER_14_429
*1162 FILLER_15_0
*1163 FILLER_15_7
*1164 FILLER_15_14
*1165 FILLER_15_21
*1166 FILLER_15_28
*1167 FILLER_15_35
*1168 FILLER_15_42
*1169 FILLER_15_49
*1170 FILLER_15_56
*1171 FILLER_15_63
*1172 FILLER_15_70
*1173 FILLER_15_77
*1174 FILLER_15_84
*1175 FILLER_15_91
*1176 FILLER_15_98
*1177 FILLER_15_105
*1178 FILLER_15_112
*1179 FILLER_15_119
*1180 FILLER_15_126
*1181 FILLER_15_133
*1182 FILLER_15_140
*1183 FILLER_15_147
*1184 FILLER_15_154
*1185 FILLER_15_161
*1186 FILLER_15_168
*1187 FILLER_15_175
*1188 FILLER_15_182
*1189 FILLER_15_189
*1190 FILLER_15_196
*1191 FILLER_15_203
*1192 FILLER_15_210
*1193 FILLER_15_217
*1194 FILLER_15_224
*1195 FILLER_15_231
*1196 FILLER_15_238
*1197 FILLER_15_245
*1198 FILLER_15_252
*1199 FILLER_15_259
*1200 FILLER_15_266
*1201 FILLER_15_273
*1202 FILLER_15_280
*1203 FILLER_15_287
*1204 FILLER_15_294
*1205 FILLER_15_301
*1206 FILLER_15_308
*1207 FILLER_15_315
*1208 FILLER_15_322
*1209 FILLER_15_329
*1210 FILLER_15_336
*1211 FILLER_15_343
*1212 FILLER_15_350
*1213 FILLER_15_357
*1214 FILLER_15_364
*1215 FILLER_15_371
*1216 FILLER_15_378
*1217 FILLER_15_385
*1218 FILLER_15_392
*1219 FILLER_15_399
*1220 FILLER_15_406
*1221 FILLER_15_413
*1222 FILLER_15_420
*1223 FILLER_15_427
*1224 FILLER_15_429
*1225 FILLER_16_0
*1226 FILLER_16_7
*1227 FILLER_16_14
*1228 FILLER_16_21
*1229 FILLER_16_28
*1230 FILLER_16_35
*1231 FILLER_16_42
*1232 FILLER_16_49
*1233 FILLER_16_56
*1234 FILLER_16_63
*1235 FILLER_16_70
*1236 FILLER_16_77
*1237 FILLER_16_84
*1238 FILLER_16_91
*1239 FILLER_16_98
*1240 FILLER_16_105
*1241 FILLER_16_112
*1242 FILLER_16_119
*1243 FILLER_16_126
*1244 FILLER_16_133
*1245 FILLER_16_140
*1246 FILLER_16_147
*1247 FILLER_16_154
*1248 FILLER_16_161
*1249 FILLER_16_168
*1250 FILLER_16_175
*1251 FILLER_16_182
*1252 FILLER_16_189
*1253 FILLER_16_196
*1254 FILLER_16_203
*1255 FILLER_16_210
*1256 FILLER_16_217
*1257 FILLER_16_224
*1258 FILLER_16_231
*1259 FILLER_16_238
*1260 FILLER_16_245
*1261 FILLER_16_252
*1262 FILLER_16_259
*1263 FILLER_16_266
*1264 FILLER_16_273
*1265 FILLER_16_280
*1266 FILLER_16_287
*1267 FILLER_16_294
*1268 FILLER_16_301
*1269 FILLER_16_308
*1270 FILLER_16_315
*1271 FILLER_16_322
*1272 FILLER_16_329
*1273 FILLER_16_336
*1274 FILLER_16_343
*1275 FILLER_16_350
*1276 FILLER_16_357
*1277 FILLER_16_364
*1278 FILLER_16_371
*1279 FILLER_16_378
*1280 FILLER_16_385
*1281 FILLER_16_392
*1282 FILLER_16_399
*1283 FILLER_16_406
*1284 FILLER_16_413
*1285 FILLER_16_420
*1286 FILLER_16_427
*1287 FILLER_16_429
*1288 FILLER_17_0
*1289 FILLER_17_7
*1290 FILLER_17_14
*1291 FILLER_17_21
*1292 FILLER_17_28
*1293 FILLER_17_35
*1294 FILLER_17_42
*1295 FILLER_17_49
*1296 FILLER_17_56
*1297 FILLER_17_63
*1298 FILLER_17_70
*1299 FILLER_17_77
*1300 FILLER_17_84
*1301 FILLER_17_91
*1302 FILLER_17_98
*1303 FILLER_17_105
*1304 FILLER_17_112
*1305 FILLER_17_119
*1306 FILLER_17_126
*1307 FILLER_17_133
*1308 FILLER_17_140
*1309 FILLER_17_147
*1310 FILLER_17_154
*1311 FILLER_17_161
*1312 FILLER_17_168
*1313 FILLER_17_175
*1314 FILLER_17_182
*1315 FILLER_17_189
*1316 FILLER_17_196
*1317 FILLER_17_203
*1318 FILLER_17_210
*1319 FILLER_17_217
*1320 FILLER_17_224
*1321 FILLER_17_231
*1322 FILLER_17_238
*1323 FILLER_17_245
*1324 FILLER_17_252
*1325 FILLER_17_259
*1326 FILLER_17_266
*1327 FILLER_17_273
*1328 FILLER_17_280
*1329 FILLER_17_287
*1330 FILLER_17_294
*1331 FILLER_17_301
*1332 FILLER_17_308
*1333 FILLER_17_315
*1334 FILLER_17_322
*1335 FILLER_17_329
*1336 FILLER_17_336
*1337 FILLER_17_343
*1338 FILLER_17_350
*1339 FILLER_17_357
*1340 FILLER_17_364
*1341 FILLER_17_371
*1342 FILLER_17_378
*1343 FILLER_17_385
*1344 FILLER_17_392
*1345 FILLER_17_399
*1346 FILLER_17_406
*1347 FILLER_17_413
*1348 FILLER_17_420
*1349 FILLER_17_427
*1350 FILLER_17_429
*1351 FILLER_18_0
*1352 FILLER_18_7
*1353 FILLER_18_14
*1354 FILLER_18_21
*1355 FILLER_18_28
*1356 FILLER_18_35
*1357 FILLER_18_42
*1358 FILLER_18_49
*1359 FILLER_18_56
*1360 FILLER_18_63
*1361 FILLER_18_70
*1362 FILLER_18_77
*1363 FILLER_18_84
*1364 FILLER_18_91
*1365 FILLER_18_98
*1366 FILLER_18_105
*1367 FILLER_18_112
*1368 FILLER_18_119
*1369 FILLER_18_126
*1370 FILLER_18_133
*1371 FILLER_18_140
*1372 FILLER_18_147
*1373 FILLER_18_154
*1374 FILLER_18_161
*1375 FILLER_18_168
*1376 FILLER_18_175
*1377 FILLER_18_182
*1378 FILLER_18_189
*1379 FILLER_18_196
*1380 FILLER_18_203
*1381 FILLER_18_210
*1382 FILLER_18_217
*1383 FILLER_18_224
*1384 FILLER_18_231
*1385 FILLER_18_238
*1386 FILLER_18_245
*1387 FILLER_18_252
*1388 FILLER_18_259
*1389 FILLER_18_266
*1390 FILLER_18_273
*1391 FILLER_18_280
*1392 FILLER_18_287
*1393 FILLER_18_294
*1394 FILLER_18_301
*1395 FILLER_18_308
*1396 FILLER_18_315
*1397 FILLER_18_322
*1398 FILLER_18_329
*1399 FILLER_18_336
*1400 FILLER_18_343
*1401 FILLER_18_350
*1402 FILLER_18_357
*1403 FILLER_18_364
*1404 FILLER_18_371
*1405 FILLER_18_378
*1406 FILLER_18_385
*1407 FILLER_18_392
*1408 FILLER_18_399
*1409 FILLER_18_406
*1410 FILLER_18_413
*1411 FILLER_18_420
*1412 FILLER_18_427
*1413 FILLER_18_429
*1414 FILLER_19_0
*1415 FILLER_19_7
*1416 FILLER_19_14
*1417 FILLER_19_21
*1418 FILLER_19_28
*1419 FILLER_19_35
*1420 FILLER_19_42
*1421 FILLER_19_49
*1422 FILLER_19_56
*1423 FILLER_19_63
*1424 FILLER_19_70
*1425 FILLER_19_77
*1426 FILLER_19_84
*1427 FILLER_19_91
*1428 FILLER_19_98
*1429 FILLER_19_105
*1430 FILLER_19_112
*1431 FILLER_19_119
*1432 FILLER_19_126
*1433 FILLER_19_133
*1434 FILLER_19_140
*1435 FILLER_19_147
*1436 FILLER_19_154
*1437 FILLER_19_161
*1438 FILLER_19_168
*1439 FILLER_19_175
*1440 FILLER_19_182
*1441 FILLER_19_189
*1442 FILLER_19_196
*1443 FILLER_19_203
*1444 FILLER_19_210
*1445 FILLER_19_217
*1446 FILLER_19_224
*1447 FILLER_19_231
*1448 FILLER_19_238
*1449 FILLER_19_245
*1450 FILLER_19_252
*1451 FILLER_19_259
*1452 FILLER_19_266
*1453 FILLER_19_273
*1454 FILLER_19_280
*1455 FILLER_19_287
*1456 FILLER_19_294
*1457 FILLER_19_301
*1458 FILLER_19_308
*1459 FILLER_19_315
*1460 FILLER_19_322
*1461 FILLER_19_329
*1462 FILLER_19_336
*1463 FILLER_19_343
*1464 FILLER_19_350
*1465 FILLER_19_357
*1466 FILLER_19_364
*1467 FILLER_19_371
*1468 FILLER_19_378
*1469 FILLER_19_385
*1470 FILLER_19_392
*1471 FILLER_19_399
*1472 FILLER_19_406
*1473 FILLER_19_413
*1474 FILLER_19_420
*1475 FILLER_19_427
*1476 FILLER_19_429
*1477 FILLER_20_0
*1478 FILLER_20_7
*1479 FILLER_20_14
*1480 FILLER_20_21
*1481 FILLER_20_28
*1482 FILLER_20_35
*1483 FILLER_20_42
*1484 FILLER_20_49
*1485 FILLER_20_56
*1486 FILLER_20_63
*1487 FILLER_20_70
*1488 FILLER_20_77
*1489 FILLER_20_84
*1490 FILLER_20_91
*1491 FILLER_20_98
*1492 FILLER_20_105
*1493 FILLER_20_112
*1494 FILLER_20_119
*1495 FILLER_20_126
*1496 FILLER_20_133
*1497 FILLER_20_140
*1498 FILLER_20_147
*1499 FILLER_20_154
*1500 FILLER_20_161
*1501 FILLER_20_168
*1502 FILLER_20_175
*1503 FILLER_20_182
*1504 FILLER_20_189
*1505 FILLER_20_196
*1506 FILLER_20_203
*1507 FILLER_20_210
*1508 FILLER_20_217
*1509 FILLER_20_224
*1510 FILLER_20_231
*1511 FILLER_20_238
*1512 FILLER_20_245
*1513 FILLER_20_252
*1514 FILLER_20_259
*1515 FILLER_20_266
*1516 FILLER_20_273
*1517 FILLER_20_280
*1518 FILLER_20_287
*1519 FILLER_20_294
*1520 FILLER_20_301
*1521 FILLER_20_308
*1522 FILLER_20_315
*1523 FILLER_20_322
*1524 FILLER_20_329
*1525 FILLER_20_336
*1526 FILLER_20_343
*1527 FILLER_20_350
*1528 FILLER_20_357
*1529 FILLER_20_364
*1530 FILLER_20_371
*1531 FILLER_20_378
*1532 FILLER_20_385
*1533 FILLER_20_392
*1534 FILLER_20_399
*1535 FILLER_20_406
*1536 FILLER_20_413
*1537 FILLER_20_420
*1538 FILLER_20_427
*1539 FILLER_20_429
*1540 FILLER_21_0
*1541 FILLER_21_7
*1542 FILLER_21_14
*1543 FILLER_21_21
*1544 FILLER_21_28
*1545 FILLER_21_35
*1546 FILLER_21_42
*1547 FILLER_21_49
*1548 FILLER_21_56
*1549 FILLER_21_63
*1550 FILLER_21_70
*1551 FILLER_21_77
*1552 FILLER_21_84
*1553 FILLER_21_91
*1554 FILLER_21_98
*1555 FILLER_21_105
*1556 FILLER_21_112
*1557 FILLER_21_119
*1558 FILLER_21_126
*1559 FILLER_21_133
*1560 FILLER_21_140
*1561 FILLER_21_147
*1562 FILLER_21_154
*1563 FILLER_21_161
*1564 FILLER_21_168
*1565 FILLER_21_175
*1566 FILLER_21_182
*1567 FILLER_21_189
*1568 FILLER_21_196
*1569 FILLER_21_203
*1570 FILLER_21_210
*1571 FILLER_21_217
*1572 FILLER_21_224
*1573 FILLER_21_231
*1574 FILLER_21_238
*1575 FILLER_21_245
*1576 FILLER_21_252
*1577 FILLER_21_259
*1578 FILLER_21_266
*1579 FILLER_21_273
*1580 FILLER_21_280
*1581 FILLER_21_287
*1582 FILLER_21_294
*1583 FILLER_21_301
*1584 FILLER_21_308
*1585 FILLER_21_315
*1586 FILLER_21_322
*1587 FILLER_21_329
*1588 FILLER_21_336
*1589 FILLER_21_343
*1590 FILLER_21_350
*1591 FILLER_21_357
*1592 FILLER_21_364
*1593 FILLER_21_371
*1594 FILLER_21_378
*1595 FILLER_21_385
*1596 FILLER_21_392
*1597 FILLER_21_399
*1598 FILLER_21_406
*1599 FILLER_21_413
*1600 FILLER_21_420
*1601 FILLER_21_427
*1602 FILLER_21_429
*1603 FILLER_22_0
*1604 FILLER_22_7
*1605 FILLER_22_14
*1606 FILLER_22_21
*1607 FILLER_22_28
*1608 FILLER_22_35
*1609 FILLER_22_42
*1610 FILLER_22_49
*1611 FILLER_22_56
*1612 FILLER_22_63
*1613 FILLER_22_70
*1614 FILLER_22_77
*1615 FILLER_22_84
*1616 FILLER_22_91
*1617 FILLER_22_98
*1618 FILLER_22_105
*1619 FILLER_22_112
*1620 FILLER_22_119
*1621 FILLER_22_126
*1622 FILLER_22_133
*1623 FILLER_22_140
*1624 FILLER_22_147
*1625 FILLER_22_154
*1626 FILLER_22_161
*1627 FILLER_22_168
*1628 FILLER_22_175
*1629 FILLER_22_182
*1630 FILLER_22_189
*1631 FILLER_22_196
*1632 FILLER_22_203
*1633 FILLER_22_210
*1634 FILLER_22_217
*1635 FILLER_22_224
*1636 FILLER_22_231
*1637 FILLER_22_238
*1638 FILLER_22_245
*1639 FILLER_22_252
*1640 FILLER_22_259
*1641 FILLER_22_266
*1642 FILLER_22_273
*1643 FILLER_22_280
*1644 FILLER_22_287
*1645 FILLER_22_294
*1646 FILLER_22_301
*1647 FILLER_22_308
*1648 FILLER_22_315
*1649 FILLER_22_322
*1650 FILLER_22_329
*1651 FILLER_22_336
*1652 FILLER_22_343
*1653 FILLER_22_350
*1654 FILLER_22_357
*1655 FILLER_22_364
*1656 FILLER_22_371
*1657 FILLER_22_378
*1658 FILLER_22_385
*1659 FILLER_22_392
*1660 FILLER_22_399
*1661 FILLER_22_406