*SPEF "ieee 1481-1999"
*DESIGN "tt_um_dlmiles_ringosc_5inv"
*DATE "03:19:23 Monday November 04, 2024"
*VENDOR "The OpenROAD Project"
*PROGRAM "OpenROAD"
*VERSION "v2.0-16649-g40811f37f"
*DESIGN_FLOW "NAME_SCOPE LOCAL" "PIN_CAP NONE"
*DIVIDER /
*DELIMITER :
*BUS_DELIMITER []
*T_UNIT 1 NS
*C_UNIT 1 PF
*R_UNIT 1 OHM
*L_UNIT 1 HENRY

*NAME_MAP
*2 clk
*3 dff_q_clk\[0\]
*4 dff_q_clk\[10\]
*5 dff_q_clk\[11\]
*6 dff_q_clk\[12\]
*7 dff_q_clk\[13\]
*8 dff_q_clk\[14\]
*9 dff_q_clk\[15\]
*10 dff_q_clk\[16\]
*11 dff_q_clk\[1\]
*12 dff_q_clk\[2\]
*13 dff_q_clk\[3\]
*14 dff_q_clk\[4\]
*15 dff_q_clk\[5\]
*16 dff_q_clk\[6\]
*17 dff_q_clk\[7\]
*18 dff_q_clk\[8\]
*19 dff_q_clk\[9\]
*20 dff_qn_d\[0\]
*21 dff_qn_d\[10\]
*22 dff_qn_d\[11\]
*23 dff_qn_d\[12\]
*24 dff_qn_d\[13\]
*25 dff_qn_d\[14\]
*26 dff_qn_d\[15\]
*27 dff_qn_d\[1\]
*28 dff_qn_d\[2\]
*29 dff_qn_d\[3\]
*30 dff_qn_d\[4\]
*31 dff_qn_d\[5\]
*32 dff_qn_d\[6\]
*33 dff_qn_d\[7\]
*34 dff_qn_d\[8\]
*35 dff_qn_d\[9\]
*36 ena
*37 ring\[1\]
*38 ring\[2\]
*39 ring\[3\]
*40 ring\[4\]
*41 ring\[5\]
*42 rst_n
*43 ui_in[0]
*44 ui_in[1]
*45 ui_in[2]
*46 ui_in[3]
*47 ui_in[4]
*48 ui_in[5]
*49 ui_in[6]
*50 ui_in[7]
*51 uio_in[0]
*52 uio_in[1]
*53 uio_in[2]
*54 uio_in[3]
*55 uio_in[4]
*56 uio_in[5]
*57 uio_in[6]
*58 uio_in[7]
*59 uio_oe[0]
*60 uio_oe[1]
*61 uio_oe[2]
*62 uio_oe[3]
*63 uio_oe[4]
*64 uio_oe[5]
*65 uio_oe[6]
*66 uio_oe[7]
*67 uio_out[0]
*68 uio_out[1]
*69 uio_out[2]
*70 uio_out[3]
*71 uio_out[4]
*72 uio_out[5]
*73 uio_out[6]
*74 uio_out[7]
*75 uo_out[0]
*76 uo_out[1]
*77 uo_out[2]
*78 uo_out[3]
*79 uo_out[4]
*80 uo_out[5]
*81 uo_out[6]
*82 uo_out[7]
*85 net1
*86 net2
*87 net3
*88 net4
*89 net5
*90 net6
*91 net7
*92 net8
*93 net9
*94 net10
*95 net11
*96 net12
*97 net13
*98 net14
*99 net15
*100 net16
*101 net17
*102 net18
*103 net19
*104 net20
*105 net21
*106 net22
*107 net23
*108 net24
*109 net25
*110 net26
*111 _01_
*112 FILLER_0_0
*113 _03_
*114 _04_
*115 _05_
*116 _06_
*117 _07_
*118 _08_
*119 _09_
*120 _10_
*121 _11_
*122 _12_
*123 _13_
*124 _14_
*125 _15_
*126 _16_
*127 _17_
*128 _18_
*129 _19_
*130 _20_
*131 _21_
*132 _22_
*133 _23_
*134 _24_
*135 _25_
*136 _26_
*137 div\[0\]\.div_notouch_
*138 div\[10\]\.div_notouch_
*139 div\[11\]\.div_notouch_
*140 div\[12\]\.div_notouch_
*141 div\[13\]\.div_notouch_
*142 div\[14\]\.div_notouch_
*143 div\[15\]\.div_notouch_
*144 div\[1\]\.div_notouch_
*145 div\[2\]\.div_notouch_
*146 div\[3\]\.div_notouch_
*147 div\[4\]\.div_notouch_
*148 div\[5\]\.div_notouch_
*149 div\[6\]\.div_notouch_
*150 div\[7\]\.div_notouch_
*151 div\[8\]\.div_notouch_
*152 div\[9\]\.div_notouch_
*153 ro\[0\]\.inv_notouch_
*154 ro\[1\]\.inv_notouch_
*155 ro\[2\]\.inv_notouch_
*156 ro\[3\]\.inv_notouch_
*157 ro\[4\]\.inv_notouch_
*158 input1
*159 input2
*160 output3
*161 output4
*162 output5
*163 output6
*164 output7
*165 output8
*166 output9
*167 output10
*168 output11
*169 output12
*170 output13
*171 output14
*172 output15
*173 output16
*174 output17
*175 output18
*176 _03__19
*177 _04__20
*178 _05__21
*179 _06__22
*180 _07__23
*181 _08__24
*182 _25__25
*183 _26__26
*184 FILLER_0_7
*185 FILLER_0_14
*186 FILLER_0_21
*187 FILLER_0_28
*188 FILLER_0_35
*189 FILLER_0_42
*190 FILLER_0_49
*191 FILLER_0_56
*192 FILLER_0_63
*193 FILLER_0_70
*194 FILLER_0_77
*195 FILLER_0_84
*196 FILLER_0_91
*197 FILLER_0_98
*198 FILLER_0_105
*199 FILLER_0_112
*200 FILLER_0_119
*201 FILLER_0_126
*202 FILLER_0_133
*203 FILLER_0_140
*204 FILLER_0_147
*205 FILLER_0_154
*206 FILLER_0_161
*207 FILLER_0_168
*208 FILLER_0_175
*209 FILLER_0_182
*210 FILLER_0_189
*211 FILLER_0_196
*212 FILLER_0_203
*213 FILLER_0_210
*214 FILLER_0_217
*215 FILLER_0_224
*216 FILLER_0_231
*217 FILLER_0_238
*218 FILLER_0_245
*219 FILLER_0_252
*220 FILLER_0_259
*221 FILLER_0_266
*222 FILLER_0_273
*223 FILLER_0_280
*224 FILLER_0_287
*225 FILLER_0_294
*226 FILLER_0_301
*227 FILLER_0_308
*228 FILLER_0_315
*229 FILLER_0_322
*230 FILLER_0_329
*231 FILLER_0_336
*232 FILLER_0_343
*233 FILLER_0_350
*234 FILLER_0_357
*235 FILLER_0_364
*236 FILLER_0_371
*237 FILLER_0_378
*238 FILLER_0_385
*239 FILLER_0_392
*240 FILLER_0_399
*241 FILLER_0_406
*242 FILLER_0_413
*243 FILLER_0_420
*244 FILLER_0_427
*245 FILLER_0_429
*246 FILLER_1_0
*247 FILLER_1_7
*248 FILLER_1_14
*249 FILLER_1_21
*250 FILLER_1_28
*251 FILLER_1_35
*252 FILLER_1_42
*253 FILLER_1_49
*254 FILLER_1_56
*255 FILLER_1_63
*256 FILLER_1_70
*257 FILLER_1_77
*258 FILLER_1_84
*259 FILLER_1_91
*260 FILLER_1_98
*261 FILLER_1_105
*262 FILLER_1_112
*263 FILLER_1_119
*264 FILLER_1_126
*265 FILLER_1_133
*266 FILLER_1_140
*267 FILLER_1_147
*268 FILLER_1_154
*269 FILLER_1_161
*270 FILLER_1_168
*271 FILLER_1_175
*272 FILLER_1_182
*273 FILLER_1_189
*274 FILLER_1_196
*275 FILLER_1_203
*276 FILLER_1_210
*277 FILLER_1_217
*278 FILLER_1_224
*279 FILLER_1_231
*280 FILLER_1_238
*281 FILLER_1_245
*282 FILLER_1_252
*283 FILLER_1_259
*284 FILLER_1_266
*285 FILLER_1_273
*286 FILLER_1_280
*287 FILLER_1_287
*288 FILLER_1_294
*289 FILLER_1_301
*290 FILLER_1_308
*291 FILLER_1_315
*292 FILLER_1_322
*293 FILLER_1_329
*294 FILLER_1_336
*295 FILLER_1_343
*296 FILLER_1_350
*297 FILLER_1_357
*298 FILLER_1_364
*299 FILLER_1_371
*300 FILLER_1_378
*301 FILLER_1_385
*302 FILLER_1_392
*303 FILLER_1_399
*304 FILLER_1_406
*305 FILLER_1_413
*306 FILLER_1_420
*307 FILLER_1_427
*308 FILLER_1_429
*309 FILLER_2_0
*310 FILLER_2_7
*311 FILLER_2_14
*312 FILLER_2_21
*313 FILLER_2_28
*314 FILLER_2_35
*315 FILLER_2_42
*316 FILLER_2_49
*317 FILLER_2_56
*318 FILLER_2_63
*319 FILLER_2_70
*320 FILLER_2_77
*321 FILLER_2_84
*322 FILLER_2_91
*323 FILLER_2_98
*324 FILLER_2_105
*325 FILLER_2_112
*326 FILLER_2_119
*327 FILLER_2_126
*328 FILLER_2_133
*329 FILLER_2_140
*330 FILLER_2_147
*331 FILLER_2_154
*332 FILLER_2_161
*333 FILLER_2_168
*334 FILLER_2_175
*335 FILLER_2_182
*336 FILLER_2_189
*337 FILLER_2_196
*338 FILLER_2_203
*339 FILLER_2_210
*340 FILLER_2_217
*341 FILLER_2_224
*342 FILLER_2_231
*343 FILLER_2_238
*344 FILLER_2_245
*345 FILLER_2_252
*346 FILLER_2_259
*347 FILLER_2_266
*348 FILLER_2_273
*349 FILLER_2_280
*350 FILLER_2_287
*351 FILLER_2_294
*352 FILLER_2_301
*353 FILLER_2_308
*354 FILLER_2_315
*355 FILLER_2_322
*356 FILLER_2_329
*357 FILLER_2_336
*358 FILLER_2_343
*359 FILLER_2_350
*360 FILLER_2_357
*361 FILLER_2_364
*362 FILLER_2_371
*363 FILLER_2_378
*364 FILLER_2_385
*365 FILLER_2_392
*366 FILLER_2_399
*367 FILLER_2_406
*368 FILLER_2_413
*369 FILLER_2_420
*370 FILLER_2_427
*371 FILLER_2_429
*372 FILLER_3_0
*373 FILLER_3_7
*374 FILLER_3_14
*375 FILLER_3_21
*376 FILLER_3_28
*377 FILLER_3_35
*378 FILLER_3_42
*379 FILLER_3_49
*380 FILLER_3_56
*381 FILLER_3_63
*382 FILLER_3_70
*383 FILLER_3_77
*384 FILLER_3_84
*385 FILLER_3_91
*386 FILLER_3_98
*387 FILLER_3_105
*388 FILLER_3_112
*389 FILLER_3_119
*390 FILLER_3_126
*391 FILLER_3_133
*392 FILLER_3_140
*393 FILLER_3_147
*394 FILLER_3_154
*395 FILLER_3_161
*396 FILLER_3_168
*397 FILLER_3_175
*398 FILLER_3_182
*399 FILLER_3_189
*400 FILLER_3_196
*401 FILLER_3_203
*402 FILLER_3_210
*403 FILLER_3_217
*404 FILLER_3_224
*405 FILLER_3_231
*406 FILLER_3_238
*407 FILLER_3_245
*408 FILLER_3_252
*409 FILLER_3_259
*410 FILLER_3_266
*411 FILLER_3_273
*412 FILLER_3_280
*413 FILLER_3_287
*414 FILLER_3_294
*415 FILLER_3_301
*416 FILLER_3_308
*417 FILLER_3_315
*418 FILLER_3_322
*419 FILLER_3_329
*420 FILLER_3_336
*421 FILLER_3_343
*422 FILLER_3_350
*423 FILLER_3_357
*424 FILLER_3_364
*425 FILLER_3_371
*426 FILLER_3_378
*427 FILLER_3_385
*428 FILLER_3_392
*429 FILLER_3_399
*430 FILLER_3_406
*431 FILLER_3_413
*432 FILLER_3_420
*433 FILLER_3_427
*434 FILLER_3_429
*435 FILLER_4_0
*436 FILLER_4_7
*437 FILLER_4_14
*438 FILLER_4_21
*439 FILLER_4_28
*440 FILLER_4_35
*441 FILLER_4_42
*442 FILLER_4_49
*443 FILLER_4_56
*444 FILLER_4_63
*445 FILLER_4_70
*446 FILLER_4_77
*447 FILLER_4_84
*448 FILLER_4_91
*449 FILLER_4_98
*450 FILLER_4_105
*451 FILLER_4_112
*452 FILLER_4_119
*453 FILLER_4_126
*454 FILLER_4_133
*455 FILLER_4_140
*456 FILLER_4_147
*457 FILLER_4_154
*458 FILLER_4_161
*459 FILLER_4_168
*460 FILLER_4_175
*461 FILLER_4_182
*462 FILLER_4_189
*463 FILLER_4_196
*464 FILLER_4_203
*465 FILLER_4_210
*466 FILLER_4_217
*467 FILLER_4_224
*468 FILLER_4_231
*469 FILLER_4_238
*470 FILLER_4_245
*471 FILLER_4_252
*472 FILLER_4_259
*473 FILLER_4_266
*474 FILLER_4_273
*475 FILLER_4_280
*476 FILLER_4_287
*477 FILLER_4_294
*478 FILLER_4_301
*479 FILLER_4_308
*480 FILLER_4_315
*481 FILLER_4_322
*482 FILLER_4_329
*483 FILLER_4_336
*484 FILLER_4_343
*485 FILLER_4_350
*486 FILLER_4_357
*487 FILLER_4_364
*488 FILLER_4_371
*489 FILLER_4_378
*490 FILLER_4_385
*491 FILLER_4_392
*492 FILLER_4_399
*493 FILLER_4_406
*494 FILLER_4_413
*495 FILLER_4_420
*496 FILLER_4_427
*497 FILLER_4_429
*498 FILLER_5_0
*499 FILLER_5_7
*500 FILLER_5_14
*501 FILLER_5_21
*502 FILLER_5_28
*503 FILLER_5_35
*504 FILLER_5_42
*505 FILLER_5_49
*506 FILLER_5_56
*507 FILLER_5_63
*508 FILLER_5_70
*509 FILLER_5_77
*510 FILLER_5_84
*511 FILLER_5_91
*512 FILLER_5_98
*513 FILLER_5_105
*514 FILLER_5_112
*515 FILLER_5_119
*516 FILLER_5_126
*517 FILLER_5_133
*518 FILLER_5_140
*519 FILLER_5_147
*520 FILLER_5_154
*521 FILLER_5_161
*522 FILLER_5_168
*523 FILLER_5_175
*524 FILLER_5_182
*525 FILLER_5_189
*526 FILLER_5_196
*527 FILLER_5_203
*528 FILLER_5_210
*529 FILLER_5_217
*530 FILLER_5_224
*531 FILLER_5_231
*532 FILLER_5_238
*533 FILLER_5_245
*534 FILLER_5_252
*535 FILLER_5_259
*536 FILLER_5_266
*537 FILLER_5_273
*538 FILLER_5_280
*539 FILLER_5_287
*540 FILLER_5_294
*541 FILLER_5_301
*542 FILLER_5_308
*543 FILLER_5_315
*544 FILLER_5_322
*545 FILLER_5_329
*546 FILLER_5_336
*547 FILLER_5_343
*548 FILLER_5_350
*549 FILLER_5_357
*550 FILLER_5_364
*551 FILLER_5_371
*552 FILLER_5_378
*553 FILLER_5_385
*554 FILLER_5_392
*555 FILLER_5_399
*556 FILLER_5_406
*557 FILLER_5_413
*558 FILLER_5_420
*559 FILLER_5_427
*560 FILLER_5_429
*561 FILLER_6_0
*562 FILLER_6_7
*563 FILLER_6_14
*564 FILLER_6_21
*565 FILLER_6_28
*566 FILLER_6_35
*567 FILLER_6_42
*568 FILLER_6_49
*569 FILLER_6_56
*570 FILLER_6_63
*571 FILLER_6_70
*572 FILLER_6_77
*573 FILLER_6_84
*574 FILLER_6_91
*575 FILLER_6_98
*576 FILLER_6_105
*577 FILLER_6_112
*578 FILLER_6_119
*579 FILLER_6_126
*580 FILLER_6_133
*581 FILLER_6_140
*582 FILLER_6_147
*583 FILLER_6_154
*584 FILLER_6_161
*585 FILLER_6_168
*586 FILLER_6_175
*587 FILLER_6_182
*588 FILLER_6_189
*589 FILLER_6_196
*590 FILLER_6_203
*591 FILLER_6_210
*592 FILLER_6_217
*593 FILLER_6_224
*594 FILLER_6_231
*595 FILLER_6_238
*596 FILLER_6_245
*597 FILLER_6_252
*598 FILLER_6_259
*599 FILLER_6_266
*600 FILLER_6_273
*601 FILLER_6_280
*602 FILLER_6_287
*603 FILLER_6_294
*604 FILLER_6_301
*605 FILLER_6_308
*606 FILLER_6_315
*607 FILLER_6_322
*608 FILLER_6_329
*609 FILLER_6_336
*610 FILLER_6_343
*611 FILLER_6_350
*612 FILLER_6_357
*613 FILLER_6_364
*614 FILLER_6_371
*615 FILLER_6_378
*616 FILLER_6_385
*617 FILLER_6_392
*618 FILLER_6_399
*619 FILLER_6_406
*620 FILLER_6_413
*621 FILLER_6_420
*622 FILLER_6_427
*623 FILLER_6_429
*624 FILLER_7_0
*625 FILLER_7_7
*626 FILLER_7_14
*627 FILLER_7_21
*628 FILLER_7_28
*629 FILLER_7_35
*630 FILLER_7_42
*631 FILLER_7_49
*632 FILLER_7_56
*633 FILLER_7_63
*634 FILLER_7_70
*635 FILLER_7_77
*636 FILLER_7_84
*637 FILLER_7_91
*638 FILLER_7_98
*639 FILLER_7_105
*640 FILLER_7_112
*641 FILLER_7_119
*642 FILLER_7_126
*643 FILLER_7_133
*644 FILLER_7_140
*645 FILLER_7_147
*646 FILLER_7_154
*647 FILLER_7_161
*648 FILLER_7_168
*649 FILLER_7_175
*650 FILLER_7_182
*651 FILLER_7_189
*652 FILLER_7_196
*653 FILLER_7_203
*654 FILLER_7_210
*655 FILLER_7_217
*656 FILLER_7_224
*657 FILLER_7_231
*658 FILLER_7_238
*659 FILLER_7_245
*660 FILLER_7_252
*661 FILLER_7_259
*662 FILLER_7_266
*663 FILLER_7_273
*664 FILLER_7_280
*665 FILLER_7_287
*666 FILLER_7_294
*667 FILLER_7_301
*668 FILLER_7_308
*669 FILLER_7_315
*670 FILLER_7_322
*671 FILLER_7_329
*672 FILLER_7_336
*673 FILLER_7_343
*674 FILLER_7_350
*675 FILLER_7_357
*676 FILLER_7_364
*677 FILLER_7_371
*678 FILLER_7_378
*679 FILLER_7_385
*680 FILLER_7_392
*681 FILLER_7_399
*682 FILLER_7_406
*683 FILLER_7_413
*684 FILLER_7_420
*685 FILLER_7_427
*686 FILLER_7_429
*687 FILLER_8_0
*688 FILLER_8_7
*689 FILLER_8_14
*690 FILLER_8_21
*691 FILLER_8_28
*692 FILLER_8_35
*693 FILLER_8_42
*694 FILLER_8_49
*695 FILLER_8_56
*696 FILLER_8_63
*697 FILLER_8_70
*698 FILLER_8_77
*699 FILLER_8_84
*700 FILLER_8_91
*701 FILLER_8_98
*702 FILLER_8_105
*703 FILLER_8_112
*704 FILLER_8_119
*705 FILLER_8_126
*706 FILLER_8_133
*707 FILLER_8_140
*708 FILLER_8_147
*709 FILLER_8_154
*710 FILLER_8_161
*711 FILLER_8_168
*712 FILLER_8_175
*713 FILLER_8_182
*714 FILLER_8_189
*715 FILLER_8_196
*716 FILLER_8_203
*717 FILLER_8_210
*718 FILLER_8_217
*719 FILLER_8_224
*720 FILLER_8_231
*721 FILLER_8_238
*722 FILLER_8_245
*723 FILLER_8_252
*724 FILLER_8_259
*725 FILLER_8_266
*726 FILLER_8_273
*727 FILLER_8_280
*728 FILLER_8_287
*729 FILLER_8_294
*730 FILLER_8_301
*731 FILLER_8_308
*732 FILLER_8_315
*733 FILLER_8_322
*734 FILLER_8_329
*735 FILLER_8_336
*736 FILLER_8_343
*737 FILLER_8_350
*738 FILLER_8_357
*739 FILLER_8_364
*740 FILLER_8_371
*741 FILLER_8_378
*742 FILLER_8_385
*743 FILLER_8_392
*744 FILLER_8_399
*745 FILLER_8_406
*746 FILLER_8_413
*747 FILLER_8_420
*748 FILLER_8_427
*749 FILLER_8_429
*750 FILLER_9_0
*751 FILLER_9_7
*752 FILLER_9_14
*753 FILLER_9_21
*754 FILLER_9_28
*755 FILLER_9_35
*756 FILLER_9_42
*757 FILLER_9_49
*758 FILLER_9_56
*759 FILLER_9_63
*760 FILLER_9_70
*761 FILLER_9_77
*762 FILLER_9_84
*763 FILLER_9_91
*764 FILLER_9_98
*765 FILLER_9_105
*766 FILLER_9_112
*767 FILLER_9_119
*768 FILLER_9_126
*769 FILLER_9_133
*770 FILLER_9_140
*771 FILLER_9_147
*772 FILLER_9_154
*773 FILLER_9_161
*774 FILLER_9_168
*775 FILLER_9_175
*776 FILLER_9_182
*777 FILLER_9_189
*778 FILLER_9_196
*779 FILLER_9_203
*780 FILLER_9_210
*781 FILLER_9_217
*782 FILLER_9_224
*783 FILLER_9_231
*784 FILLER_9_238
*785 FILLER_9_245
*786 FILLER_9_252
*787 FILLER_9_259
*788 FILLER_9_266
*789 FILLER_9_273
*790 FILLER_9_280
*791 FILLER_9_287
*792 FILLER_9_294
*793 FILLER_9_301
*794 FILLER_9_308
*795 FILLER_9_315
*796 FILLER_9_322
*797 FILLER_9_329
*798 FILLER_9_336
*799 FILLER_9_343
*800 FILLER_9_350
*801 FILLER_9_357
*802 FILLER_9_364
*803 FILLER_9_371
*804 FILLER_9_378
*805 FILLER_9_385
*806 FILLER_9_392
*807 FILLER_9_399
*808 FILLER_9_406
*809 FILLER_9_413
*810 FILLER_9_420
*811 FILLER_9_427
*812 FILLER_9_429
*813 FILLER_10_0
*814 FILLER_10_7
*815 FILLER_10_14
*816 FILLER_10_21
*817 FILLER_10_28
*818 FILLER_10_35
*819 FILLER_10_42
*820 FILLER_10_49
*821 FILLER_10_56
*822 FILLER_10_63
*823 FILLER_10_70
*824 FILLER_10_77
*825 FILLER_10_84
*826 FILLER_10_91
*827 FILLER_10_98
*828 FILLER_10_105
*829 FILLER_10_112
*830 FILLER_10_119
*831 FILLER_10_126
*832 FILLER_10_133
*833 FILLER_10_140
*834 FILLER_10_147
*835 FILLER_10_154
*836 FILLER_10_161
*837 FILLER_10_168
*838 FILLER_10_175
*839 FILLER_10_182
*840 FILLER_10_189
*841 FILLER_10_196
*842 FILLER_10_203
*843 FILLER_10_210
*844 FILLER_10_217
*845 FILLER_10_224
*846 FILLER_10_231
*847 FILLER_10_238
*848 FILLER_10_245
*849 FILLER_10_252
*850 FILLER_10_259
*851 FILLER_10_266
*852 FILLER_10_273
*853 FILLER_10_280
*854 FILLER_10_287
*855 FILLER_10_294
*856 FILLER_10_301
*857 FILLER_10_308
*858 FILLER_10_315
*859 FILLER_10_322
*860 FILLER_10_329
*861 FILLER_10_336
*862 FILLER_10_343
*863 FILLER_10_350
*864 FILLER_10_357
*865 FILLER_10_364
*866 FILLER_10_371
*867 FILLER_10_378
*868 FILLER_10_385
*869 FILLER_10_392
*870 FILLER_10_399
*871 FILLER_10_406
*872 FILLER_10_413
*873 FILLER_10_420
*874 FILLER_10_427
*875 FILLER_10_429
*876 FILLER_11_0
*877 FILLER_11_7
*878 FILLER_11_14
*879 FILLER_11_21
*880 FILLER_11_28
*881 FILLER_11_35
*882 FILLER_11_42
*883 FILLER_11_49
*884 FILLER_11_56
*885 FILLER_11_63
*886 FILLER_11_70
*887 FILLER_11_77
*888 FILLER_11_84
*889 FILLER_11_91
*890 FILLER_11_98
*891 FILLER_11_105
*892 FILLER_11_112
*893 FILLER_11_119
*894 FILLER_11_126
*895 FILLER_11_133
*896 FILLER_11_140
*897 FILLER_11_147
*898 FILLER_11_154
*899 FILLER_11_161
*900 FILLER_11_168
*901 FILLER_11_175
*902 FILLER_11_182
*903 FILLER_11_189
*904 FILLER_11_196
*905 FILLER_11_203
*906 FILLER_11_210
*907 FILLER_11_217
*908 FILLER_11_224
*909 FILLER_11_231
*910 FILLER_11_238
*911 FILLER_11_245
*912 FILLER_11_252
*913 FILLER_11_259
*914 FILLER_11_266
*915 FILLER_11_273
*916 FILLER_11_280
*917 FILLER_11_287
*918 FILLER_11_294
*919 FILLER_11_301
*920 FILLER_11_308
*921 FILLER_11_315
*922 FILLER_11_322
*923 FILLER_11_329
*924 FILLER_11_336
*925 FILLER_11_343
*926 FILLER_11_350
*927 FILLER_11_357
*928 FILLER_11_364
*929 FILLER_11_371
*930 FILLER_11_378
*931 FILLER_11_385
*932 FILLER_11_392
*933 FILLER_11_399
*934 FILLER_11_406
*935 FILLER_11_413
*936 FILLER_11_420
*937 FILLER_11_427
*938 FILLER_11_429
*939 FILLER_12_0
*940 FILLER_12_7
*941 FILLER_12_14
*942 FILLER_12_21
*943 FILLER_12_28
*944 FILLER_12_35
*945 FILLER_12_42
*946 FILLER_12_49
*947 FILLER_12_56
*948 FILLER_12_63
*949 FILLER_12_70
*950 FILLER_12_77
*951 FILLER_12_84
*952 FILLER_12_91
*953 FILLER_12_98
*954 FILLER_12_105
*955 FILLER_12_112
*956 FILLER_12_119
*957 FILLER_12_126
*958 FILLER_12_133
*959 FILLER_12_140
*960 FILLER_12_147
*961 FILLER_12_154
*962 FILLER_12_161
*963 FILLER_12_168
*964 FILLER_12_175
*965 FILLER_12_182
*966 FILLER_12_189
*967 FILLER_12_196
*968 FILLER_12_203
*969 FILLER_12_210
*970 FILLER_12_217
*971 FILLER_12_224
*972 FILLER_12_231
*973 FILLER_12_238
*974 FILLER_12_245
*975 FILLER_12_252
*976 FILLER_12_259
*977 FILLER_12_266
*978 FILLER_12_273
*979 FILLER_12_280
*980 FILLER_12_287
*981 FILLER_12_294
*982 FILLER_12_301
*983 FILLER_12_308
*984 FILLER_12_315
*985 FILLER_12_322
*986 FILLER_12_329
*987 FILLER_12_336
*988 FILLER_12_343
*989 FILLER_12_350
*990 FILLER_12_357
*991 FILLER_12_364
*992 FILLER_12_371
*993 FILLER_12_378
*994 FILLER_12_385
*995 FILLER_12_392
*996 FILLER_12_399
*997 FILLER_12_406
*998 FILLER_12_413
*999 FILLER_12_420
*1000 FILLER_12_427
*1001 FILLER_12_429
*1002 FILLER_13_0
*1003 FILLER_13_7
*1004 FILLER_13_14
*1005 FILLER_13_21
*1006 FILLER_13_28
*1007 FILLER_13_35
*1008 FILLER_13_42
*1009 FILLER_13_49
*1010 FILLER_13_56
*1011 FILLER_13_63
*1012 FILLER_13_70
*1013 FILLER_13_77
*1014 FILLER_13_84
*1015 FILLER_13_91
*1016 FILLER_13_98
*1017 FILLER_13_105
*1018 FILLER_13_112
*1019 FILLER_13_119
*1020 FILLER_13_126
*1021 FILLER_13_133
*1022 FILLER_13_140
*1023 FILLER_13_147
*1024 FILLER_13_154
*1025 FILLER_13_161
*1026 FILLER_13_168
*1027 FILLER_13_175
*1028 FILLER_13_182
*1029 FILLER_13_189
*1030 FILLER_13_196
*1031 FILLER_13_203
*1032 FILLER_13_210
*1033 FILLER_13_217
*1034 FILLER_13_224
*1035 FILLER_13_231
*1036 FILLER_13_238
*1037 FILLER_13_245
*1038 FILLER_13_252
*1039 FILLER_13_259
*1040 FILLER_13_266
*1041 FILLER_13_273
*1042 FILLER_13_280
*1043 FILLER_13_287
*1044 FILLER_13_294
*1045 FILLER_13_301
*1046 FILLER_13_308
*1047 FILLER_13_315
*1048 FILLER_13_322
*1049 FILLER_13_329
*1050 FILLER_13_336
*1051 FILLER_13_343
*1052 FILLER_13_350
*1053 FILLER_13_357
*1054 FILLER_13_364
*1055 FILLER_13_371
*1056 FILLER_13_378
*1057 FILLER_13_385
*1058 FILLER_13_392
*1059 FILLER_13_399
*1060 FILLER_13_406
*1061 FILLER_13_413
*1062 FILLER_13_420
*1063 FILLER_13_427
*1064 FILLER_13_429
*1065 FILLER_14_0
*1066 FILLER_14_7
*1067 FILLER_14_14
*1068 FILLER_14_21
*1069 FILLER_14_28
*1070 FILLER_14_35
*1071 FILLER_14_42
*1072 FILLER_14_49
*1073 FILLER_14_56
*1074 FILLER_14_63
*1075 FILLER_14_70
*1076 FILLER_14_77
*1077 FILLER_14_84
*1078 FILLER_14_91
*1079 FILLER_14_98
*1080 FILLER_14_105
*1081 FILLER_14_112
*1082 FILLER_14_119
*1083 FILLER_14_126
*1084 FILLER_14_133
*1085 FILLER_14_140
*1086 FILLER_14_147
*1087 FILLER_14_154
*1088 FILLER_14_161
*1089 FILLER_14_168
*1090 FILLER_14_175
*1091 FILLER_14_182
*1092 FILLER_14_189
*1093 FILLER_14_196
*1094 FILLER_14_203
*1095 FILLER_14_210
*1096 FILLER_14_217
*1097 FILLER_14_224
*1098 FILLER_14_231
*1099 FILLER_14_238
*1100 FILLER_14_245
*1101 FILLER_14_252
*1102 FILLER_14_259
*1103 FILLER_14_266
*1104 FILLER_14_273
*1105 FILLER_14_280
*1106 FILLER_14_287
*1107 FILLER_14_294
*1108 FILLER_14_301
*1109 FILLER_14_308
*1110 FILLER_14_315
*1111 FILLER_14_322
*1112 FILLER_14_329
*1113 FILLER_14_336
*1114 FILLER_14_343
*1115 FILLER_14_350
*1116 FILLER_14_357
*1117 FILLER_14_364
*1118 FILLER_14_371
*1119 FILLER_14_378
*1120 FILLER_14_385
*1121 FILLER_14_392
*1122 FILLER_14_399
*1123 FILLER_14_406
*1124 FILLER_14_413
*1125 FILLER_14_420
*1126 FILLER_14_427
*1127 FILLER_14_429
*1128 FILLER_15_0
*1129 FILLER_15_7
*1130 FILLER_15_14
*1131 FILLER_15_21
*1132 FILLER_15_28
*1133 FILLER_15_35
*1134 FILLER_15_42
*1135 FILLER_15_49
*1136 FILLER_15_56
*1137 FILLER_15_63
*1138 FILLER_15_70
*1139 FILLER_15_77
*1140 FILLER_15_84
*1141 FILLER_15_91
*1142 FILLER_15_98
*1143 FILLER_15_105
*1144 FILLER_15_112
*1145 FILLER_15_119
*1146 FILLER_15_126
*1147 FILLER_15_133
*1148 FILLER_15_140
*1149 FILLER_15_147
*1150 FILLER_15_154
*1151 FILLER_15_161
*1152 FILLER_15_168
*1153 FILLER_15_175
*1154 FILLER_15_182
*1155 FILLER_15_189
*1156 FILLER_15_196
*1157 FILLER_15_203
*1158 FILLER_15_210
*1159 FILLER_15_217
*1160 FILLER_15_224
*1161 FILLER_15_231
*1162 FILLER_15_238
*1163 FILLER_15_245
*1164 FILLER_15_252
*1165 FILLER_15_259
*1166 FILLER_15_266
*1167 FILLER_15_273
*1168 FILLER_15_280
*1169 FILLER_15_287
*1170 FILLER_15_294
*1171 FILLER_15_301
*1172 FILLER_15_308
*1173 FILLER_15_315
*1174 FILLER_15_322
*1175 FILLER_15_329
*1176 FILLER_15_336
*1177 FILLER_15_343
*1178 FILLER_15_350
*1179 FILLER_15_357
*1180 FILLER_15_364
*1181 FILLER_15_371
*1182 FILLER_15_378
*1183 FILLER_15_385
*1184 FILLER_15_392
*1185 FILLER_15_399
*1186 FILLER_15_406
*1187 FILLER_15_413
*1188 FILLER_15_420
*1189 FILLER_15_427
*1190 FILLER_15_429
*1191 FILLER_16_0
*1192 FILLER_16_7
*1193 FILLER_16_14
*1194 FILLER_16_21
*1195 FILLER_16_28
*1196 FILLER_16_35
*1197 FILLER_16_42
*1198 FILLER_16_49
*1199 FILLER_16_56
*1200 FILLER_16_63
*1201 FILLER_16_70
*1202 FILLER_16_77
*1203 FILLER_16_84
*1204 FILLER_16_91
*1205 FILLER_16_98
*1206 FILLER_16_105
*1207 FILLER_16_112
*1208 FILLER_16_119
*1209 FILLER_16_126
*1210 FILLER_16_133
*1211 FILLER_16_140
*1212 FILLER_16_147
*1213 FILLER_16_154
*1214 FILLER_16_161
*1215 FILLER_16_168
*1216 FILLER_16_175
*1217 FILLER_16_182
*1218 FILLER_16_189
*1219 FILLER_16_196
*1220 FILLER_16_203
*1221 FILLER_16_210
*1222 FILLER_16_217
*1223 FILLER_16_224
*1224 FILLER_16_231
*1225 FILLER_16_238
*1226 FILLER_16_245
*1227 FILLER_16_252
*1228 FILLER_16_259
*1229 FILLER_16_266
*1230 FILLER_16_273
*1231 FILLER_16_280
*1232 FILLER_16_287
*1233 FILLER_16_294
*1234 FILLER_16_301
*1235 FILLER_16_308
*1236 FILLER_16_315
*1237 FILLER_16_322
*1238 FILLER_16_329
*1239 FILLER_16_336
*1240 FILLER_16_343
*1241 FILLER_16_350
*1242 FILLER_16_357
*1243 FILLER_16_364
*1244 FILLER_16_371
*1245 FILLER_16_378
*1246 FILLER_16_385
*1247 FILLER_16_392
*1248 FILLER_16_399
*1249 FILLER_16_406
*1250 FILLER_16_413
*1251 FILLER_16_420
*1252 FILLER_16_427
*1253 FILLER_16_429
*1254 FILLER_17_0
*1255 FILLER_17_7
*1256 FILLER_17_14
*1257 FILLER_17_21
*1258 FILLER_17_28
*1259 FILLER_17_35
*1260 FILLER_17_42
*1261 FILLER_17_49
*1262 FILLER_17_56
*1263 FILLER_17_63
*1264 FILLER_17_70
*1265 FILLER_17_77
*1266 FILLER_17_84
*1267 FILLER_17_91
*1268 FILLER_17_98
*1269 FILLER_17_105
*1270 FILLER_17_112
*1271 FILLER_17_119
*1272 FILLER_17_126
*1273 FILLER_17_133
*1274 FILLER_17_140
*1275 FILLER_17_147
*1276 FILLER_17_154
*1277 FILLER_17_161
*1278 FILLER_17_168
*1279 FILLER_17_175
*1280 FILLER_17_182
*1281 FILLER_17_189
*1282 FILLER_17_196
*1283 FILLER_17_203
*1284 FILLER_17_210
*1285 FILLER_17_217
*1286 FILLER_17_224
*1287 FILLER_17_231
*1288 FILLER_17_238
*1289 FILLER_17_245
*1290 FILLER_17_252
*1291 FILLER_17_259
*1292 FILLER_17_266
*1293 FILLER_17_273
*1294 FILLER_17_280
*1295 FILLER_17_287
*1296 FILLER_17_294
*1297 FILLER_17_301
*1298 FILLER_17_308
*1299 FILLER_17_315
*1300 FILLER_17_322
*1301 FILLER_17_329
*1302 FILLER_17_336
*1303 FILLER_17_343
*1304 FILLER_17_350
*1305 FILLER_17_357
*1306 FILLER_17_364
*1307 FILLER_17_371
*1308 FILLER_17_378
*1309 FILLER_17_385
*1310 FILLER_17_392
*1311 FILLER_17_399
*1312 FILLER_17_406
*1313 FILLER_17_413
*1314 FILLER_17_420
*1315 FILLER_17_427
*1316 FILLER_17_429
*1317 FILLER_18_0
*1318 FILLER_18_7
*1319 FILLER_18_14
*1320 FILLER_18_21
*1321 FILLER_18_28
*1322 FILLER_18_35
*1323 FILLER_18_42
*1324 FILLER_18_49
*1325 FILLER_18_56
*1326 FILLER_18_63
*1327 FILLER_18_70
*1328 FILLER_18_77
*1329 FILLER_18_84
*1330 FILLER_18_91
*1331 FILLER_18_98
*1332 FILLER_18_105
*1333 FILLER_18_112
*1334 FILLER_18_119
*1335 FILLER_18_126
*1336 FILLER_18_133
*1337 FILLER_18_140
*1338 FILLER_18_147
*1339 FILLER_18_154
*1340 FILLER_18_161
*1341 FILLER_18_168
*1342 FILLER_18_175
*1343 FILLER_18_182
*1344 FILLER_18_189
*1345 FILLER_18_196
*1346 FILLER_18_203
*1347 FILLER_18_210
*1348 FILLER_18_217
*1349 FILLER_18_224
*1350 FILLER_18_231
*1351 FILLER_18_238
*1352 FILLER_18_245
*1353 FILLER_18_252
*1354 FILLER_18_259
*1355 FILLER_18_266
*1356 FILLER_18_273
*1357 FILLER_18_280
*1358 FILLER_18_287
*1359 FILLER_18_294
*1360 FILLER_18_301
*1361 FILLER_18_308
*1362 FILLER_18_315
*1363 FILLER_18_322
*1364 FILLER_18_329
*1365 FILLER_18_336
*1366 FILLER_18_343
*1367 FILLER_18_350
*1368 FILLER_18_357
*1369 FILLER_18_364
*1370 FILLER_18_371
*1371 FILLER_18_378
*1372 FILLER_18_385
*1373 FILLER_18_392
*1374 FILLER_18_399
*1375 FILLER_18_406
*1376 FILLER_18_413
*1377 FILLER_18_420
*1378 FILLER_18_427
*1379 FILLER_18_429
*1380 FILLER_19_0
*1381 FILLER_19_7
*1382 FILLER_19_14
*1383 FILLER_19_21
*1384 FILLER_19_28
*1385 FILLER_19_35
*1386 FILLER_19_42
*1387 FILLER_19_49
*1388 FILLER_19_56
*1389 FILLER_19_63
*1390 FILLER_19_70
*1391 FILLER_19_77
*1392 FILLER_19_84
*1393 FILLER_19_91
*1394 FILLER_19_98
*1395 FILLER_19_105
*1396 FILLER_19_112
*1397 FILLER_19_119
*1398 FILLER_19_126
*1399 FILLER_19_133
*1400 FILLER_19_140
*1401 FILLER_19_147
*1402 FILLER_19_154
*1403 FILLER_19_161
*1404 FILLER_19_168
*1405 FILLER_19_175
*1406 FILLER_19_182
*1407 FILLER_19_189
*1408 FILLER_19_196
*1409 FILLER_19_203
*1410 FILLER_19_210
*1411 FILLER_19_217
*1412 FILLER_19_224
*1413 FILLER_19_231
*1414 FILLER_19_238
*1415 FILLER_19_245
*1416 FILLER_19_252
*1417 FILLER_19_259
*1418 FILLER_19_266
*1419 FILLER_19_273
*1420 FILLER_19_280
*1421 FILLER_19_287
*1422 FILLER_19_294
*1423 FILLER_19_301
*1424 FILLER_19_308
*1425 FILLER_19_315
*1426 FILLER_19_322
*1427 FILLER_19_329
*1428 FILLER_19_336
*1429 FILLER_19_343
*1430 FILLER_19_350
*1431 FILLER_19_357
*1432 FILLER_19_364
*1433 FILLER_19_371
*1434 FILLER_19_378
*1435 FILLER_19_385
*1436 FILLER_19_392
*1437 FILLER_19_399
*1438 FILLER_19_406
*1439 FILLER_19_413
*1440 FILLER_19_420
*1441 FILLER_19_427
*1442 FILLER_19_429
*1443 FILLER_20_0
*1444 FILLER_20_7
*1445 FILLER_20_14
*1446 FILLER_20_21
*1447 FILLER_20_28
*1448 FILLER_20_35
*1449 FILLER_20_42
*1450 FILLER_20_49
*1451 FILLER_20_56
*1452 FILLER_20_63
*1453 FILLER_20_70
*1454 FILLER_20_77
*1455 FILLER_20_84
*1456 FILLER_20_91
*1457 FILLER_20_98
*1458 FILLER_20_105
*1459 FILLER_20_112
*1460 FILLER_20_119
*1461 FILLER_20_126
*1462 FILLER_20_133
*1463 FILLER_20_140
*1464 FILLER_20_147
*1465 FILLER_20_154
*1466 FILLER_20_161
*1467 FILLER_20_168
*1468 FILLER_20_175
*1469 FILLER_20_182
*1470 FILLER_20_189
*1471 FILLER_20_196
*1472 FILLER_20_203
*1473 FILLER_20_210
*1474 FILLER_20_217
*1475 FILLER_20_224
*1476 FILLER_20_231
*1477 FILLER_20_238
*1478 FILLER_20_245
*1479 FILLER_20_252
*1480 FILLER_20_259
*1481 FILLER_20_266
*1482 FILLER_20_273
*1483 FILLER_20_280
*1484 FILLER_20_287
*1485 FILLER_20_294
*1486 FILLER_20_301
*1487 FILLER_20_308
*1488 FILLER_20_315
*1489 FILLER_20_322
*1490 FILLER_20_329
*1491 FILLER_20_336
*1492 FILLER_20_343
*1493 FILLER_20_350
*1494 FILLER_20_357
*1495 FILLER_20_364
*1496 FILLER_20_371
*1497 FILLER_20_378
*1498 FILLER_20_385
*1499 FILLER_20_392
*1500 FILLER_20_399
*1501 FILLER_20_406
*1502 FILLER_20_413
*1503 FILLER_20_420
*1504 FILLER_20_427
*1505 FILLER_20_429
*1506 FILLER_21_0
*1507 FILLER_21_7
*1508 FILLER_21_14
*1509 FILLER_21_21
*1510 FILLER_21_28
*1511 FILLER_21_35
*1512 FILLER_21_42
*1513 FILLER_21_49
*1514 FILLER_21_56
*1515 FILLER_21_63
*1516 FILLER_21_70
*1517 FILLER_21_77
*1518 FILLER_21_84
*1519 FILLER_21_91
*1520 FILLER_21_98
*1521 FILLER_21_105
*1522 FILLER_21_112
*1523 FILLER_21_119
*1524 FILLER_21_126
*1525 FILLER_21_133
*1526 FILLER_21_140
*1527 FILLER_21_147
*1528 FILLER_21_154
*1529 FILLER_21_161
*1530 FILLER_21_168
*1531 FILLER_21_175
*1532 FILLER_21_182
*1533 FILLER_21_189
*1534 FILLER_21_196
*1535 FILLER_21_203
*1536 FILLER_21_210
*1537 FILLER_21_217
*1538 FILLER_21_224
*1539 FILLER_21_231
*1540 FILLER_21_238
*1541 FILLER_21_245
*1542 FILLER_21_252
*1543 FILLER_21_259
*1544 FILLER_21_266
*1545 FILLER_21_273
*1546 FILLER_21_280
*1547 FILLER_21_287
*1548 FILLER_21_294
*1549 FILLER_21_301
*1550 FILLER_21_308
*1551 FILLER_21_315
*1552 FILLER_21_322
*1553 FILLER_21_329
*1554 FILLER_21_336
*1555 FILLER_21_343
*1556 FILLER_21_350
*1557 FILLER_21_357
*1558 FILLER_21_364
*1559 FILLER_21_371
*1560 FILLER_21_378
*1561 FILLER_21_385
*1562 FILLER_21_392
*1563 FILLER_21_399
*1564 FILLER_21_406
*1565 FILLER_21_413
*1566 FILLER_21_420
*1567 FILLER_21_427
*1568 FILLER_21_429
*1569 FILLER_22_0
*1570 FILLER_22_7
*1571 FILLER_22_14
*1572 FILLER_22_21
*1573 FILLER_22_28
*1574 FILLER_22_35
*1575 FILLER_22_42
*1576 FILLER_22_49
*1577 FILLER_22_56
*1578 FILLER_22_63
*1579 FILLER_22_70
*1580 FILLER_22_77
*1581 FILLER_22_84
*1582 FILLER_22_91
*1583 FILLER_22_98
*1584 FILLER_22_105
*1585 FILLER_22_112
*1586 FILLER_22_119
*1587 FILLER_22_126
*1588 FILLER_22_133
*1589 FILLER_22_140
*1590 FILLER_22_147
*1591 FILLER_22_154
*1592 FILLER_22_161
*1593 FILLER_22_168
*1594 FILLER_22_175
*1595 FILLER_22_182
*1596 FILLER_22_189
*1597 FILLER_22_196
*1598 FILLER_22_203
*1599 FILLER_22_210
*1600 FILLER_22_217
*1601 FILLER_22_224
*1602 FILLER_22_231
*1603 FILLER_22_238
*1604 FILLER_22_245
*1605 FILLER_22_252
*1606 FILLER_22_259
*1607 FILLER_22_266
*1608 FILLER_22_273
*1609 FILLER_22_280
*1610 FILLER_22_287
*1611 FILLER_22_294
*1612 FILLER_22_301
*1613 FILLER_22_308
*1614 FILLER_22_315
*1615 FILLER_22_322
*1616 FILLER_22_329
*1617 FILLER_22_336
*1618 FILLER_22_343
*1619 FILLER_22_350
*1620 FILLER_22_357