*SPEF "ieee 1481-1999"
*DESIGN "tt_um_devinatkin_pulse_width_counter"
*DATE "03:19:07 Monday November 04, 2024"
*VENDOR "The OpenROAD Project"
*PROGRAM "OpenROAD"
*VERSION "v2.0-16649-g40811f37f"
*DESIGN_FLOW "NAME_SCOPE LOCAL" "PIN_CAP NONE"
*DIVIDER /
*DELIMITER :
*BUS_DELIMITER []
*T_UNIT 1 NS
*C_UNIT 1 PF
*R_UNIT 1 OHM
*L_UNIT 1 HENRY

*NAME_MAP
*1 _0000_
*2 _0001_
*3 _0002_
*4 _0003_
*5 _0004_
*6 _0005_
*7 _0006_
*8 _0007_
*9 _0008_
*10 _0009_
*11 _0010_
*12 _0011_
*13 _0012_
*14 _0013_
*15 _0014_
*16 _0015_
*17 _0016_
*18 _0017_
*19 _0018_
*20 _0019_
*21 _0020_
*22 _0021_
*23 _0022_
*24 _0023_
*25 _0024_
*26 _0025_
*27 _0026_
*28 _0027_
*29 _0028_
*30 _0029_
*31 _0030_
*32 _0031_
*33 _0032_
*34 _0033_
*35 _0034_
*36 _0035_
*37 _0036_
*38 _0037_
*39 _0038_
*40 _0039_
*41 _0040_
*42 _0041_
*43 _0042_
*44 _0043_
*45 _0044_
*46 _0045_
*47 _0046_
*48 _0047_
*49 _0048_
*50 _0049_
*51 _0050_
*52 _0051_
*53 _0052_
*54 _0053_
*55 _0054_
*56 _0055_
*57 _0056_
*58 _0057_
*59 _0058_
*60 _0059_
*61 _0060_
*62 _0061_
*63 _0062_
*64 _0063_
*65 _0064_
*66 _0065_
*67 _0066_
*68 _0067_
*69 _0068_
*70 _0069_
*71 _0070_
*72 _0071_
*73 _0072_
*74 _0073_
*75 _0074_
*76 _0075_
*77 _0076_
*78 _0077_
*79 _0078_
*80 _0079_
*81 _0080_
*82 _0081_
*83 _0082_
*84 _0083_
*85 _0084_
*86 _0085_
*87 _0086_
*88 _0087_
*89 _0088_
*90 _0089_
*91 _0090_
*92 _0091_
*93 _0092_
*94 _0093_
*95 _0094_
*96 _0095_
*97 _0096_
*98 _0097_
*99 _0098_
*100 _0099_
*101 _0100_
*102 _0101_
*103 _0102_
*104 _0103_
*105 _0104_
*106 _0105_
*107 _0106_
*108 _0107_
*109 _0108_
*110 _0109_
*111 _0110_
*112 _0111_
*113 _0112_
*114 _0113_
*115 _0114_
*116 _0115_
*117 _0116_
*118 _0117_
*119 _0118_
*120 _0119_
*121 _0120_
*122 _0121_
*123 _0122_
*124 _0123_
*125 _0124_
*126 _0125_
*127 _0126_
*128 _0127_
*129 _0128_
*130 _0129_
*131 _0130_
*132 _0131_
*133 _0132_
*134 _0133_
*135 _0134_
*136 _0135_
*137 _0136_
*138 _0137_
*139 _0138_
*140 _0139_
*141 _0140_
*142 _0141_
*143 _0142_
*144 _0143_
*145 _0144_
*146 _0145_
*147 _0146_
*148 _0147_
*149 _0148_
*150 _0149_
*151 _0150_
*152 _0151_
*153 _0152_
*154 _0153_
*155 _0154_
*156 _0155_
*157 _0156_
*158 _0157_
*159 _0158_
*160 _0159_
*161 _0160_
*162 _0161_
*163 _0162_
*164 _0163_
*165 _0164_
*166 _0165_
*167 _0166_
*168 _0167_
*169 _0168_
*170 _0169_
*171 _0170_
*172 _0171_
*173 _0172_
*174 _0173_
*175 _0174_
*176 _0175_
*177 _0176_
*178 _0177_
*179 _0178_
*180 _0179_
*181 _0180_
*182 _0181_
*183 _0182_
*184 _0183_
*185 _0184_
*186 _0185_
*187 _0186_
*188 _0187_
*189 _0188_
*190 _0189_
*191 _0190_
*192 _0191_
*193 _0192_
*194 _0193_
*195 _0194_
*196 _0195_
*197 _0196_
*198 _0197_
*199 _0198_
*200 _0199_
*201 _0200_
*202 _0201_
*203 _0202_
*204 _0203_
*205 _0204_
*206 _0205_
*207 _0206_
*208 _0207_
*209 _0208_
*210 _0209_
*211 _0210_
*212 _0211_
*213 _0212_
*214 _0213_
*215 _0214_
*216 _0215_
*217 _0216_
*218 _0217_
*219 _0218_
*220 _0219_
*221 _0220_
*222 _0221_
*223 _0222_
*224 _0223_
*225 _0224_
*226 _0225_
*227 _0226_
*228 _0227_
*229 _0228_
*230 _0229_
*231 _0230_
*232 _0231_
*233 _0232_
*234 _0233_
*235 _0234_
*236 _0235_
*237 _0236_
*238 _0237_
*239 _0238_
*240 _0239_
*241 _0240_
*242 _0241_
*243 _0242_
*244 _0243_
*245 _0244_
*246 _0245_
*247 _0246_
*248 _0247_
*249 _0248_
*250 _0249_
*251 _0250_
*252 _0251_
*253 _0252_
*254 _0253_
*255 _0254_
*256 _0255_
*257 _0256_
*258 _0257_
*259 _0258_
*260 _0259_
*261 _0260_
*262 _0261_
*263 _0262_
*264 _0263_
*265 _0264_
*266 _0265_
*267 _0266_
*268 _0267_
*269 _0268_
*270 _0269_
*271 _0270_
*272 _0271_
*273 _0272_
*274 _0273_
*275 _0274_
*276 _0275_
*277 _0276_
*278 _0277_
*279 _0278_
*280 _0279_
*281 _0280_
*282 _0281_
*283 _0282_
*284 _0283_
*285 _0284_
*286 _0285_
*287 _0286_
*288 _0287_
*289 _0288_
*290 _0289_
*291 _0290_
*292 _0291_
*293 _0292_
*294 _0293_
*295 _0294_
*296 _0295_
*297 _0296_
*298 _0297_
*299 _0298_
*300 _0299_
*301 _0300_
*302 _0301_
*303 _0302_
*304 _0303_
*305 _0304_
*306 _0305_
*307 _0306_
*308 _0307_
*309 _0308_
*310 _0309_
*311 _0310_
*312 _0311_
*313 _0312_
*314 _0313_
*315 _0314_
*316 _0315_
*317 _0316_
*318 _0317_
*319 _0318_
*320 _0319_
*321 _0320_
*322 _0321_
*323 _0322_
*324 _0323_
*325 _0324_
*326 _0325_
*327 _0326_
*328 _0327_
*329 _0328_
*330 _0329_
*331 _0330_
*332 _0331_
*333 _0332_
*334 _0333_
*335 _0334_
*336 _0335_
*337 _0336_
*338 _0337_
*339 _0338_
*340 _0339_
*341 _0340_
*342 _0341_
*343 _0342_
*344 _0343_
*345 _0344_
*346 _0345_
*347 _0346_
*348 _0347_
*349 _0348_
*350 _0349_
*351 _0350_
*352 _0351_
*353 _0352_
*354 _0353_
*355 _0354_
*356 _0355_
*357 _0356_
*358 _0357_
*359 _0358_
*360 _0359_
*361 _0360_
*362 _0361_
*363 _0362_
*364 _0363_
*365 _0364_
*366 _0365_
*367 _0366_
*368 _0367_
*369 _0368_
*370 _0369_
*371 _0370_
*372 _0371_
*373 _0372_
*374 _0373_
*375 _0374_
*376 _0375_
*377 _0376_
*378 _0377_
*379 _0378_
*380 _0379_
*381 _0380_
*382 _0381_
*383 _0382_
*384 _0383_
*385 _0384_
*386 _0385_
*387 _0386_
*388 _0387_
*389 _0388_
*390 _0389_
*391 _0390_
*392 _0391_
*393 _0392_
*394 _0393_
*395 _0394_
*396 _0395_
*397 _0396_
*398 _0397_
*399 _0398_
*400 _0399_
*401 _0400_
*402 _0401_
*403 _0402_
*404 _0403_
*405 _0404_
*406 _0405_
*407 _0406_
*408 _0407_
*409 _0408_
*410 _0409_
*411 _0410_
*412 _0411_
*413 _0412_
*414 _0413_
*415 _0414_
*416 _0415_
*417 _0416_
*418 _0417_
*419 _0418_
*420 _0419_
*421 _0420_
*422 _0421_
*423 _0422_
*424 _0423_
*425 _0424_
*426 _0425_
*427 _0426_
*428 _0427_
*429 _0428_
*430 _0429_
*431 _0430_
*432 _0431_
*433 _0432_
*434 _0433_
*435 _0434_
*436 _0435_
*437 _0436_
*438 _0437_
*439 _0438_
*440 _0439_
*441 _0440_
*442 _0441_
*443 _0442_
*444 _0443_
*445 _0444_
*446 _0445_
*447 _0446_
*448 _0447_
*449 _0448_
*450 _0449_
*451 _0450_
*452 _0451_
*453 _0452_
*454 _0453_
*455 _0454_
*456 _0455_
*457 _0456_
*458 _0457_
*459 _0458_
*460 _0459_
*461 _0460_
*462 _0461_
*463 _0462_
*464 _0463_
*465 _0464_
*466 _0465_
*467 _0466_
*468 _0467_
*469 _0468_
*470 _0469_
*471 _0470_
*472 _0471_
*473 _0472_
*474 _0473_
*475 _0474_
*476 _0475_
*477 _0476_
*478 _0477_
*479 _0478_
*480 _0479_
*481 _0480_
*482 _0481_
*483 _0482_
*484 _0483_
*485 _0484_
*486 _0485_
*487 _0486_
*488 _0487_
*489 _0488_
*490 _0489_
*491 _0490_
*492 _0491_
*493 _0492_
*494 _0493_
*495 _0494_
*496 _0495_
*497 _0496_
*498 _0497_
*499 _0498_
*500 _0499_
*501 _0500_
*502 _0501_
*503 _0502_
*504 _0503_
*505 _0504_
*506 _0505_
*507 _0506_
*508 _0507_
*509 _0508_
*510 _0509_
*511 _0510_
*512 _0511_
*513 _0512_
*514 _0513_
*515 _0514_
*516 _0515_
*517 _0516_
*518 _0517_
*519 _0518_
*520 _0519_
*521 _0520_
*522 _0521_
*523 _0522_
*524 _0523_
*525 _0524_
*526 _0525_
*527 _0526_
*528 _0527_
*529 _0528_
*530 _0529_
*531 _0530_
*532 _0531_
*533 _0532_
*534 _0533_
*535 _0534_
*536 _0535_
*537 _0536_
*538 _0537_
*539 _0538_
*540 _0539_
*541 _0540_
*542 _0541_
*543 _0542_
*544 _0543_
*545 _0544_
*546 _0545_
*547 _0546_
*548 _0547_
*549 _0548_
*550 _0549_
*551 _0550_
*552 _0551_
*553 _0552_
*554 _0553_
*555 _0554_
*556 _0555_
*557 _0556_
*558 _0557_
*559 _0558_
*560 _0559_
*561 _0560_
*562 _0561_
*563 _0562_
*564 _0563_
*565 _0564_
*566 _0565_
*567 _0566_
*568 _0567_
*569 _0568_
*570 _0569_
*571 _0570_
*572 _0571_
*573 _0572_
*574 _0573_
*575 _0574_
*576 _0575_
*577 _0576_
*578 _0577_
*579 _0578_
*580 _0579_
*581 _0580_
*582 _0581_
*583 _0582_
*584 _0583_
*585 _0584_
*586 _0585_
*587 _0586_
*588 _0587_
*589 _0588_
*590 _0589_
*591 _0590_
*592 _0591_
*593 _0592_
*594 _0593_
*595 _0594_
*596 _0595_
*597 _0596_
*598 _0597_
*599 _0598_
*600 _0599_
*601 _0600_
*602 _0601_
*603 _0602_
*604 _0603_
*605 _0604_
*606 _0605_
*607 _0606_
*608 _0607_
*609 _0608_
*610 _0609_
*611 _0610_
*612 _0611_
*613 _0612_
*614 _0613_
*615 _0614_
*616 _0615_
*617 _0616_
*618 _0617_
*619 _0618_
*620 _0619_
*621 _0620_
*622 _0621_
*623 _0622_
*624 _0623_
*625 _0624_
*626 _0625_
*627 _0626_
*628 _0627_
*629 _0628_
*630 _0629_
*631 _0630_
*632 _0631_
*633 _0632_
*634 _0633_
*635 _0634_
*636 _0635_
*637 _0636_
*638 _0637_
*639 _0638_
*640 _0639_
*641 _0640_
*642 _0641_
*643 _0642_
*644 _0643_
*645 _0644_
*646 _0645_
*647 _0646_
*648 _0647_
*649 _0648_
*650 _0649_
*651 _0650_
*652 _0651_
*653 _0652_
*654 _0653_
*655 _0654_
*656 _0655_
*657 _0656_
*658 _0657_
*659 _0658_
*660 _0659_
*661 _0660_
*662 _0661_
*663 _0662_
*664 _0663_
*665 _0664_
*666 _0665_
*667 _0666_
*668 _0667_
*669 _0668_
*670 _0669_
*671 _0670_
*672 _0671_
*673 _0672_
*674 _0673_
*675 _0674_
*676 _0675_
*677 _0676_
*678 _0677_
*679 _0678_
*680 _0679_
*681 _0680_
*682 _0681_
*683 _0682_
*684 _0683_
*685 _0684_
*686 _0685_
*687 _0686_
*688 _0687_
*689 _0688_
*690 _0689_
*691 _0690_
*692 _0691_
*693 _0692_
*694 _0693_
*695 _0694_
*696 _0695_
*697 _0696_
*698 _0697_
*699 _0698_
*700 _0699_
*701 _0700_
*702 _0701_
*703 _0702_
*704 _0703_
*705 _0704_
*706 _0705_
*707 _0706_
*708 _0707_
*709 _0708_
*710 _0709_
*711 _0710_
*712 _0711_
*713 _0712_
*714 _0713_
*715 _0714_
*716 _0715_
*717 _0716_
*718 _0717_
*719 _0718_
*720 _0719_
*721 _0720_
*722 _0721_
*723 _0722_
*724 _0723_
*725 _0724_
*726 _0725_
*727 _0726_
*728 _0727_
*729 _0728_
*730 _0729_
*731 _0730_
*732 _0731_
*733 _0732_
*734 _0733_
*735 _0734_
*736 _0735_
*737 _0736_
*738 _0737_
*739 _0738_
*740 _0739_
*741 _0740_
*742 _0741_
*743 _0742_
*744 _0743_
*745 _0744_
*746 _0745_
*747 _0746_
*748 _0747_
*749 _0748_
*750 _0749_
*751 _0750_
*752 _0751_
*753 _0752_
*754 _0753_
*755 _0754_
*756 _0755_
*757 _0756_
*758 _0757_
*759 _0758_
*760 _0759_
*761 _0760_
*762 _0761_
*763 _0762_
*764 _0763_
*765 _0764_
*766 _0765_
*767 _0766_
*768 _0767_
*769 _0768_
*770 _0769_
*771 _0770_
*772 _0771_
*773 _0772_
*774 _0773_
*775 _0774_
*776 _0775_
*777 _0776_
*778 _0777_
*779 _0778_
*780 _0779_
*781 _0780_
*782 _0781_
*783 _0782_
*784 _0783_
*785 _0784_
*786 _0785_
*787 _0786_
*788 _0787_
*789 _0788_
*790 _0789_
*791 _0790_
*792 _0791_
*793 _0792_
*794 _0793_
*795 _0794_
*796 _0795_
*797 _0796_
*798 _0797_
*799 _0798_
*800 _0799_
*801 _0800_
*802 _0801_
*803 _0802_
*804 _0803_
*805 _0804_
*806 _0805_
*807 _0806_
*808 _0807_
*809 _0808_
*810 _0809_
*811 _0810_
*812 _0811_
*813 _0812_
*814 _0813_
*815 _0814_
*816 _0815_
*817 _0816_
*818 _0817_
*819 _0818_
*820 _0819_
*821 _0820_
*822 _0821_
*823 _0822_
*824 _0823_
*825 _0824_
*826 _0825_
*827 _0826_
*828 _0827_
*829 _0828_
*830 _0829_
*831 _0830_
*832 _0831_
*833 _0832_
*834 _0833_
*835 _0834_
*836 _0835_
*837 _0836_
*838 _0837_
*839 _0838_
*840 _0839_
*841 _0840_
*842 _0841_
*843 _0842_
*844 _0843_
*845 _0844_
*846 _0845_
*847 _0846_
*848 _0847_
*849 _0848_
*850 _0849_
*851 _0850_
*852 _0851_
*853 _0852_
*854 _0853_
*855 _0854_
*856 _0855_
*857 _0856_
*858 _0857_
*859 _0858_
*860 _0859_
*861 _0860_
*862 _0861_
*863 _0862_
*864 _0863_
*865 _0864_
*866 _0865_
*867 _0866_
*868 _0867_
*869 _0868_
*870 _0869_
*871 _0870_
*872 _0871_
*873 _0872_
*874 _0873_
*875 _0874_
*876 _0875_
*877 _0876_
*878 _0877_
*879 _0878_
*880 _0879_
*881 _0880_
*882 _0881_
*883 _0882_
*884 _0883_
*885 _0884_
*886 _0885_
*887 _0886_
*888 _0887_
*889 _0888_
*890 _0889_
*891 _0890_
*892 _0891_
*893 _0892_
*894 _0893_
*895 _0894_
*896 _0895_
*897 _0896_
*898 _0897_
*899 _0898_
*900 _0899_
*901 _0900_
*902 _0901_
*903 _0902_
*904 _0903_
*905 _0904_
*906 _0905_
*907 _0906_
*908 _0907_
*909 _0908_
*910 _0909_
*911 _0910_
*912 _0911_
*913 _0912_
*914 _0913_
*915 _0914_
*916 _0915_
*917 _0916_
*918 _0917_
*919 _0918_
*920 _0919_
*921 _0920_
*922 _0921_
*923 _0922_
*924 _0923_
*925 _0924_
*926 _0925_
*927 _0926_
*928 _0927_
*929 _0928_
*930 _0929_
*931 _0930_
*932 _0931_
*933 _0932_
*934 _0933_
*935 _0934_
*936 _0935_
*937 _0936_
*938 _0937_
*939 _0938_
*940 _0939_
*941 _0940_
*942 _0941_
*943 _0942_
*944 _0943_
*945 _0944_
*946 _0945_
*947 _0946_
*948 _0947_
*949 _0948_
*950 _0949_
*951 _0950_
*952 _0951_
*953 _0952_
*954 _0953_
*955 _0954_
*956 _0955_
*957 _0956_
*958 _0957_
*959 _0958_
*960 _0959_
*961 _0960_
*962 _0961_
*963 _0962_
*964 _0963_
*965 _0964_
*966 _0965_
*967 _0966_
*968 _0967_
*969 _0968_
*970 _0969_
*971 _0970_
*972 _0971_
*973 _0972_
*974 _0973_
*975 _0974_
*976 _0975_
*977 _0976_
*978 _0977_
*979 _0978_
*980 _0979_
*981 _0980_
*982 _0981_
*983 _0982_
*984 _0983_
*985 _0984_
*986 _0985_
*987 _0986_
*988 _0987_
*989 _0988_
*990 _0989_
*991 _0990_
*992 _0991_
*993 _0992_
*994 _0993_
*995 _0994_
*996 _0995_
*997 _0996_
*998 _0997_
*999 _0998_
*1000 _0999_
*1001 _1000_
*1002 _1001_
*1003 _1002_
*1004 _1003_
*1005 _1004_
*1006 _1005_
*1007 _1006_
*1008 _1007_
*1009 _1008_
*1010 _1009_
*1011 _1010_
*1012 _1011_
*1013 _1012_
*1014 _1013_
*1015 _1014_
*1016 _1015_
*1017 _1016_
*1018 _1017_
*1019 _1018_
*1020 _1019_
*1021 _1020_
*1022 _1021_
*1023 _1022_
*1024 _1023_
*1025 _1024_
*1026 _1025_
*1027 _1026_
*1028 _1027_
*1029 _1028_
*1030 _1029_
*1031 _1030_
*1032 _1031_
*1033 _1032_
*1034 _1033_
*1035 _1034_
*1036 _1035_
*1037 _1036_
*1038 _1037_
*1039 _1038_
*1040 _1039_
*1041 _1040_
*1042 _1041_
*1043 _1042_
*1044 _1043_
*1045 _1044_
*1046 _1045_
*1047 _1046_
*1048 _1047_
*1049 _1048_
*1050 _1049_
*1051 _1050_
*1052 _1051_
*1053 _1052_
*1054 _1053_
*1055 _1054_
*1056 _1055_
*1057 _1056_
*1058 _1057_
*1059 _1058_
*1060 _1059_
*1061 _1060_
*1062 _1061_
*1063 _1062_
*1064 _1063_
*1065 _1064_
*1066 _1065_
*1067 _1066_
*1068 _1067_
*1069 _1068_
*1070 _1069_
*1071 _1070_
*1072 _1071_
*1073 _1072_
*1074 _1073_
*1075 _1074_
*1076 _1075_
*1077 _1076_
*1078 _1077_
*1079 _1078_
*1080 _1079_
*1081 _1080_
*1082 _1081_
*1083 _1082_
*1084 _1083_
*1085 _1084_
*1086 _1085_
*1087 _1086_
*1088 _1087_
*1089 _1088_
*1090 _1089_
*1091 _1090_
*1092 _1091_
*1093 _1092_
*1094 _1093_
*1095 _1094_
*1096 _1095_
*1097 _1096_
*1098 _1097_
*1099 _1098_
*1100 _1099_
*1101 _1100_
*1102 _1101_
*1103 _1102_
*1104 _1103_
*1105 _1104_
*1106 _1105_
*1107 _1106_
*1108 _1107_
*1109 _1108_
*1110 _1109_
*1111 _1110_
*1112 _1111_
*1113 _1112_
*1114 _1113_
*1115 _1114_
*1116 _1115_
*1117 _1116_
*1118 _1117_
*1119 _1118_
*1120 _1119_
*1121 _1120_
*1122 _1121_
*1123 _1122_
*1124 _1123_
*1125 _1124_
*1126 _1125_
*1127 _1126_
*1128 _1127_
*1129 _1128_
*1130 _1129_
*1131 _1130_
*1132 _1131_
*1133 _1132_
*1134 _1133_
*1135 _1134_
*1136 _1135_
*1137 _1136_
*1138 _1137_
*1139 _1138_
*1140 _1139_
*1141 _1140_
*1142 _1141_
*1143 _1142_
*1144 _1143_
*1145 _1144_
*1146 _1145_
*1147 _1146_
*1148 _1147_
*1149 _1148_
*1150 _1149_
*1151 _1150_
*1152 _1151_
*1153 _1152_
*1154 _1153_
*1155 _1154_
*1156 _1155_
*1157 _1156_
*1158 _1157_
*1159 _1158_
*1160 _1159_
*1161 _1160_
*1162 _1161_
*1163 _1162_
*1164 _1163_
*1165 _1164_
*1166 _1165_
*1167 _1166_
*1168 _1167_
*1169 _1168_
*1170 _1169_
*1171 _1170_
*1172 _1171_
*1173 _1172_
*1174 _1173_
*1175 clknet_0_clk
*1176 net80
*1177 clk
*1178 ena
*1179 mux\.data_in\[0\]
*1180 mux\.data_in\[10\]
*1181 mux\.data_in\[11\]
*1182 mux\.data_in\[12\]
*1183 mux\.data_in\[13\]
*1184 mux\.data_in\[14\]
*1185 mux\.data_in\[15\]
*1186 mux\.data_in\[16\]
*1187 mux\.data_in\[17\]
*1188 mux\.data_in\[18\]
*1189 mux\.data_in\[19\]
*1190 mux\.data_in\[1\]
*1191 mux\.data_in\[20\]
*1192 mux\.data_in\[21\]
*1193 mux\.data_in\[22\]
*1194 mux\.data_in\[23\]
*1195 mux\.data_in\[24\]
*1196 mux\.data_in\[25\]
*1197 mux\.data_in\[26\]
*1198 mux\.data_in\[27\]
*1199 mux\.data_in\[28\]
*1200 mux\.data_in\[29\]
*1201 mux\.data_in\[2\]
*1202 mux\.data_in\[30\]
*1203 mux\.data_in\[31\]
*1204 mux\.data_in\[32\]
*1205 mux\.data_in\[33\]
*1206 mux\.data_in\[34\]
*1207 mux\.data_in\[35\]
*1208 mux\.data_in\[36\]
*1209 mux\.data_in\[37\]
*1210 mux\.data_in\[38\]
*1211 mux\.data_in\[39\]
*1212 mux\.data_in\[3\]
*1213 mux\.data_in\[40\]
*1214 mux\.data_in\[41\]
*1215 mux\.data_in\[42\]
*1216 mux\.data_in\[43\]
*1217 mux\.data_in\[44\]
*1218 mux\.data_in\[45\]
*1219 mux\.data_in\[46\]
*1220 mux\.data_in\[47\]
*1221 mux\.data_in\[48\]
*1222 mux\.data_in\[49\]
*1223 mux\.data_in\[4\]
*1224 mux\.data_in\[50\]
*1225 mux\.data_in\[51\]
*1226 mux\.data_in\[52\]
*1227 mux\.data_in\[53\]
*1228 mux\.data_in\[54\]
*1229 mux\.data_in\[55\]
*1230 mux\.data_in\[56\]
*1231 mux\.data_in\[57\]
*1232 mux\.data_in\[58\]
*1233 mux\.data_in\[59\]
*1234 mux\.data_in\[5\]
*1235 mux\.data_in\[60\]
*1236 mux\.data_in\[61\]
*1237 mux\.data_in\[62\]
*1238 mux\.data_in\[63\]
*1239 mux\.data_in\[64\]
*1240 mux\.data_in\[65\]
*1241 mux\.data_in\[66\]
*1242 mux\.data_in\[67\]
*1243 mux\.data_in\[68\]
*1244 mux\.data_in\[69\]
*1245 mux\.data_in\[6\]
*1246 mux\.data_in\[70\]
*1247 mux\.data_in\[71\]
*1248 mux\.data_in\[72\]
*1249 mux\.data_in\[73\]
*1250 mux\.data_in\[74\]
*1251 mux\.data_in\[75\]
*1252 mux\.data_in\[76\]
*1253 mux\.data_in\[77\]
*1254 mux\.data_in\[78\]
*1255 mux\.data_in\[79\]
*1256 mux\.data_in\[7\]
*1257 mux\.data_in\[80\]
*1258 mux\.data_in\[81\]
*1259 mux\.data_in\[82\]
*1260 mux\.data_in\[83\]
*1261 mux\.data_in\[84\]
*1262 mux\.data_in\[85\]
*1263 mux\.data_in\[86\]
*1264 mux\.data_in\[87\]
*1265 mux\.data_in\[88\]
*1266 mux\.data_in\[89\]
*1267 mux\.data_in\[8\]
*1268 mux\.data_in\[90\]
*1269 mux\.data_in\[91\]
*1270 mux\.data_in\[92\]
*1271 mux\.data_in\[93\]
*1272 mux\.data_in\[94\]
*1273 mux\.data_in\[95\]
*1274 mux\.data_in\[9\]
*1275 pulse_width_counter_module\.high_counter\[0\]
*1276 pulse_width_counter_module\.high_counter\[10\]
*1277 pulse_width_counter_module\.high_counter\[11\]
*1278 pulse_width_counter_module\.high_counter\[12\]
*1279 pulse_width_counter_module\.high_counter\[13\]
*1280 pulse_width_counter_module\.high_counter\[14\]
*1281 pulse_width_counter_module\.high_counter\[15\]
*1282 pulse_width_counter_module\.high_counter\[16\]
*1283 pulse_width_counter_module\.high_counter\[17\]
*1284 pulse_width_counter_module\.high_counter\[18\]
*1285 pulse_width_counter_module\.high_counter\[19\]
*1286 pulse_width_counter_module\.high_counter\[1\]
*1287 pulse_width_counter_module\.high_counter\[20\]
*1288 pulse_width_counter_module\.high_counter\[21\]
*1289 pulse_width_counter_module\.high_counter\[22\]
*1290 pulse_width_counter_module\.high_counter\[23\]
*1291 pulse_width_counter_module\.high_counter\[24\]
*1292 pulse_width_counter_module\.high_counter\[25\]
*1293 pulse_width_counter_module\.high_counter\[26\]
*1294 pulse_width_counter_module\.high_counter\[27\]
*1295 pulse_width_counter_module\.high_counter\[28\]
*1296 pulse_width_counter_module\.high_counter\[29\]
*1297 pulse_width_counter_module\.high_counter\[2\]
*1298 pulse_width_counter_module\.high_counter\[30\]
*1299 pulse_width_counter_module\.high_counter\[31\]
*1300 pulse_width_counter_module\.high_counter\[3\]
*1301 pulse_width_counter_module\.high_counter\[4\]
*1302 pulse_width_counter_module\.high_counter\[5\]
*1303 pulse_width_counter_module\.high_counter\[6\]
*1304 pulse_width_counter_module\.high_counter\[7\]
*1305 pulse_width_counter_module\.high_counter\[8\]
*1306 pulse_width_counter_module\.high_counter\[9\]
*1307 pulse_width_counter_module\.low_counter\[0\]
*1308 pulse_width_counter_module\.low_counter\[10\]
*1309 pulse_width_counter_module\.low_counter\[11\]
*1310 pulse_width_counter_module\.low_counter\[12\]
*1311 pulse_width_counter_module\.low_counter\[13\]
*1312 pulse_width_counter_module\.low_counter\[14\]
*1313 pulse_width_counter_module\.low_counter\[15\]
*1314 pulse_width_counter_module\.low_counter\[16\]
*1315 pulse_width_counter_module\.low_counter\[17\]
*1316 pulse_width_counter_module\.low_counter\[18\]
*1317 pulse_width_counter_module\.low_counter\[19\]
*1318 pulse_width_counter_module\.low_counter\[1\]
*1319 pulse_width_counter_module\.low_counter\[20\]
*1320 pulse_width_counter_module\.low_counter\[21\]
*1321 pulse_width_counter_module\.low_counter\[22\]
*1322 pulse_width_counter_module\.low_counter\[23\]
*1323 pulse_width_counter_module\.low_counter\[24\]
*1324 pulse_width_counter_module\.low_counter\[25\]
*1325 pulse_width_counter_module\.low_counter\[26\]
*1326 pulse_width_counter_module\.low_counter\[27\]
*1327 pulse_width_counter_module\.low_counter\[28\]
*1328 pulse_width_counter_module\.low_counter\[29\]
*1329 pulse_width_counter_module\.low_counter\[2\]
*1330 pulse_width_counter_module\.low_counter\[30\]
*1331 pulse_width_counter_module\.low_counter\[31\]
*1332 pulse_width_counter_module\.low_counter\[3\]
*1333 pulse_width_counter_module\.low_counter\[4\]
*1334 pulse_width_counter_module\.low_counter\[5\]
*1335 pulse_width_counter_module\.low_counter\[6\]
*1336 pulse_width_counter_module\.low_counter\[7\]
*1337 pulse_width_counter_module\.low_counter\[8\]
*1338 pulse_width_counter_module\.low_counter\[9\]
*1339 pulse_width_counter_module\.previous_freq_in
*1340 rst_n
*1341 ui_in[0]
*1342 ui_in[1]
*1343 ui_in[2]
*1344 ui_in[3]
*1345 ui_in[4]
*1346 ui_in[5]
*1347 ui_in[6]
*1348 ui_in[7]
*1349 uio_in[0]
*1350 uio_in[1]
*1351 uio_in[2]
*1352 uio_in[3]
*1353 uio_in[4]
*1354 uio_in[5]
*1355 uio_in[6]
*1356 uio_in[7]
*1357 uio_oe[0]
*1358 uio_oe[1]
*1359 uio_oe[2]
*1360 uio_oe[3]
*1361 uio_oe[4]
*1362 uio_oe[5]
*1363 uio_oe[6]
*1364 uio_oe[7]
*1365 uio_out[0]
*1366 uio_out[1]
*1367 uio_out[2]
*1368 uio_out[3]
*1369 uio_out[4]
*1370 uio_out[5]
*1371 uio_out[6]
*1372 uio_out[7]
*1373 uo_out[0]
*1374 uo_out[1]
*1375 uo_out[2]
*1376 uo_out[3]
*1377 uo_out[4]
*1378 uo_out[5]
*1379 uo_out[6]
*1380 uo_out[7]
*1383 net1
*1384 net2
*1385 net3
*1386 net4
*1387 net5
*1388 net6
*1389 net7
*1390 net8
*1391 net9
*1392 net10
*1393 net11
*1394 net12
*1395 net13
*1396 net14
*1397 net15
*1398 net16
*1399 net17
*1400 net18
*1401 net19
*1402 net20
*1403 net21
*1404 net22
*1405 net23
*1406 net24
*1407 net25
*1408 net26
*1409 net27
*1410 net28
*1411 net29
*1412 net30
*1413 net31
*1414 net32
*1415 net33
*1416 net34
*1417 net35
*1418 net36
*1419 net37
*1420 net38
*1421 net39
*1422 net40
*1423 net41
*1424 net42
*1425 net43
*1426 net44
*1427 net45
*1428 net46
*1429 net47
*1430 net48
*1431 net49
*1432 net50
*1433 net51
*1434 net52
*1435 net53
*1436 net54
*1437 net55
*1438 net56
*1439 net57
*1440 net58
*1441 net59
*1442 net60
*1443 net61
*1444 net62
*1445 net63
*1446 net64
*1447 net65
*1448 net66
*1449 net67
*1450 net68
*1451 net69
*1452 net70
*1453 net71
*1454 net72
*1455 net73
*1456 net74
*1457 net75
*1458 net76
*1459 net77
*1460 net78
*1461 net79
*1462 net81
*1463 net82
*1464 net83
*1465 net84
*1466 net85
*1467 net86
*1468 net87
*1469 net88
*1470 net89
*1471 net90
*1472 net91
*1473 net92
*1474 net93
*1475 net94
*1476 net95
*1477 net96
*1478 net97
*1479 net98
*1480 net99
*1481 net100
*1482 net101
*1483 net102
*1484 net103
*1485 net104
*1486 net105
*1487 net106
*1488 net107
*1489 net108
*1490 net109
*1491 net110
*1492 net111
*1493 net112
*1494 net113
*1495 net114
*1496 net115
*1497 net116
*1498 net117
*1499 net118
*1500 net119
*1501 net120
*1502 net121
*1503 net122
*1504 net123
*1505 net124
*1506 net125
*1507 net126
*1508 net127
*1509 net128
*1510 net129
*1511 net130
*1512 net131
*1513 net132
*1514 net133
*1515 net134
*1516 net135
*1517 net136
*1518 net137
*1519 net138
*1520 net139
*1521 net140
*1522 net141
*1523 net142
*1524 net143
*1525 net144
*1526 net145
*1527 net146
*1528 net147
*1529 net148
*1530 net149
*1531 net150
*1532 net151
*1533 net152
*1534 net153
*1535 net154
*1536 net155
*1537 net156
*1538 net157
*1539 net158
*1540 net159
*1541 net160
*1542 net161
*1543 net162
*1544 net163
*1545 net164
*1546 net165
*1547 net166
*1548 net167
*1549 net168
*1550 net169
*1551 net170
*1552 net171
*1553 net172
*1554 net173
*1555 net174
*1556 net175
*1557 net176
*1558 net177
*1559 net178
*1560 net179
*1561 net180
*1562 net181
*1563 net182
*1564 net183
*1565 net184
*1566 net185
*1567 net186
*1568 net187
*1569 net188
*1570 net189
*1571 net190
*1572 net191
*1573 net192
*1574 net193
*1575 net194
*1576 net195
*1577 net196
*1578 net197
*1579 net198
*1580 net199
*1581 net200
*1582 net201
*1583 net202
*1584 net203
*1585 net204
*1586 net205
*1587 net206
*1588 net207
*1589 net208
*1590 net209
*1591 net210
*1592 net211
*1593 net212
*1594 net213
*1595 net214
*1596 net215
*1597 net216
*1598 net217
*1599 net218
*1600 net219
*1601 net220
*1602 net221
*1603 net222
*1604 net223
*1605 net224
*1606 net225
*1607 net226
*1608 net227
*1609 net228
*1610 net229
*1611 net230
*1612 net231
*1613 net232
*1614 net233
*1615 net234
*1616 net235
*1617 net236
*1618 net237
*1619 net238
*1620 net239
*1621 net240
*1622 clknet_4_0_0_clk
*1623 clknet_4_1_0_clk
*1624 clknet_4_2_0_clk
*1625 clknet_4_3_0_clk
*1626 clknet_4_4_0_clk
*1627 clknet_4_5_0_clk
*1628 clknet_4_6_0_clk
*1629 clknet_4_7_0_clk
*1630 clknet_4_8_0_clk
*1631 clknet_4_9_0_clk
*1632 clknet_4_10_0_clk
*1633 clknet_4_11_0_clk
*1634 clknet_4_12_0_clk
*1635 clknet_4_13_0_clk
*1636 clknet_4_14_0_clk
*1637 clknet_4_15_0_clk
*1638 clknet_5_0__leaf_clk
*1639 clknet_5_1__leaf_clk
*1640 clknet_5_2__leaf_clk
*1641 clknet_5_3__leaf_clk
*1642 clknet_5_4__leaf_clk
*1643 clknet_5_5__leaf_clk
*1644 clknet_5_6__leaf_clk
*1645 clknet_5_7__leaf_clk
*1646 clknet_5_8__leaf_clk
*1647 clknet_5_9__leaf_clk
*1648 clknet_5_10__leaf_clk
*1649 clknet_5_11__leaf_clk
*1650 clknet_5_12__leaf_clk
*1651 clknet_5_13__leaf_clk
*1652 clknet_5_14__leaf_clk
*1653 clknet_5_15__leaf_clk
*1654 clknet_5_16__leaf_clk
*1655 clknet_5_17__leaf_clk
*1656 clknet_5_18__leaf_clk
*1657 clknet_5_19__leaf_clk
*1658 clknet_5_20__leaf_clk
*1659 clknet_5_21__leaf_clk
*1660 clknet_5_22__leaf_clk
*1661 clknet_5_23__leaf_clk
*1662 clknet_5_24__leaf_clk
*1663 clknet_5_25__leaf_clk
*1664 clknet_5_26__leaf_clk
*1665 clknet_5_27__leaf_clk
*1666 clknet_5_28__leaf_clk
*1667 clknet_5_29__leaf_clk
*1668 clknet_5_30__leaf_clk
*1669 clknet_5_31__leaf_clk
*1670 _1176_
*1671 _1177_
*1672 _1178_
*1673 _1179_
*1674 _1180_
*1675 _1181_
*1676 _1182_
*1677 _1183_
*1678 _1184_
*1679 _1185_
*1680 _1186_
*1681 _1187_
*1682 _1188_
*1683 _1189_
*1684 _1190_
*1685 _1191_
*1686 _1192_
*1687 _1193_
*1688 _1194_
*1689 _1195_
*1690 _1196_
*1691 _1197_
*1692 _1198_
*1693 _1199_
*1694 _1200_
*1695 _1201_
*1696 _1202_
*1697 _1203_
*1698 _1204_
*1699 _1205_
*1700 _1206_
*1701 _1207_
*1702 _1208_
*1703 _1209_
*1704 _1210_
*1705 _1211_
*1706 _1212_
*1707 _1213_
*1708 _1214_
*1709 _1215_
*1710 _1216_
*1711 _1217_
*1712 _1218_
*1713 _1219_
*1714 _1220_
*1715 _1221_
*1716 _1222_
*1717 _1223_
*1718 _1224_
*1719 _1225_
*1720 _1226_
*1721 _1227_
*1722 _1228_
*1723 _1229_
*1724 _1230_
*1725 _1231_
*1726 _1232_
*1727 _1233_
*1728 _1234_
*1729 _1235_
*1730 _1236_
*1731 _1237_
*1732 _1238_
*1733 _1239_
*1734 _1240_
*1735 _1241_
*1736 _1242_
*1737 _1243_
*1738 _1244_
*1739 _1245_
*1740 _1246_
*1741 _1247_
*1742 _1248_
*1743 _1249_
*1744 _1250_
*1745 _1251_
*1746 _1252_
*1747 _1253_
*1748 _1254_
*1749 _1255_
*1750 _1256_
*1751 _1257_
*1752 _1258_
*1753 _1259_
*1754 _1260_
*1755 _1261_
*1756 _1262_
*1757 _1263_
*1758 _1264_
*1759 _1265_
*1760 _1266_
*1761 _1267_
*1762 _1268_
*1763 _1269_
*1764 _1270_
*1765 _1271_
*1766 _1272_
*1767 _1273_
*1768 _1274_
*1769 _1275_
*1770 _1276_
*1771 _1277_
*1772 _1278_
*1773 _1279_
*1774 _1280_
*1775 _1281_
*1776 _1282_
*1777 _1283_
*1778 _1284_
*1779 _1285_
*1780 _1286_
*1781 _1287_
*1782 _1288_
*1783 _1289_
*1784 _1290_
*1785 _1291_
*1786 _1292_
*1787 _1293_
*1788 _1294_
*1789 _1295_
*1790 _1296_
*1791 _1297_
*1792 _1298_
*1793 _1299_
*1794 _1300_
*1795 _1301_
*1796 _1302_
*1797 _1303_
*1798 _1304_
*1799 _1305_
*1800 _1306_
*1801 _1307_
*1802 _1308_
*1803 _1309_
*1804 _1310_
*1805 _1311_
*1806 _1312_
*1807 _1313_
*1808 _1314_
*1809 _1315_
*1810 _1316_
*1811 _1317_
*1812 _1318_
*1813 _1319_
*1814 _1320_
*1815 _1321_
*1816 _1322_
*1817 _1323_
*1818 _1324_
*1819 _1325_
*1820 _1326_
*1821 _1327_
*1822 _1328_
*1823 _1329_
*1824 _1330_
*1825 _1331_
*1826 _1332_
*1827 _1333_
*1828 _1334_
*1829 _1335_
*1830 _1336_
*1831 _1337_
*1832 _1338_
*1833 _1339_
*1834 _1340_
*1835 _1341_
*1836 _1342_
*1837 _1343_
*1838 _1344_
*1839 _1345_
*1840 _1346_
*1841 _1347_
*1842 _1348_
*1843 _1349_
*1844 _1350_
*1845 _1351_
*1846 _1352_
*1847 _1353_
*1848 _1354_
*1849 _1355_
*1850 _1356_
*1851 _1357_
*1852 _1358_
*1853 _1359_
*1854 _1360_
*1855 _1361_
*1856 _1362_
*1857 _1363_
*1858 _1364_
*1859 _1365_
*1860 _1366_
*1861 _1367_
*1862 _1368_
*1863 _1369_
*1864 _1370_
*1865 _1371_
*1866 _1372_
*1867 _1373_
*1868 _1374_
*1869 _1375_
*1870 _1376_
*1871 _1377_
*1872 _1378_
*1873 _1379_
*1874 _1380_
*1875 _1381_
*1876 _1382_
*1877 _1383_
*1878 _1384_
*1879 _1385_
*1880 _1386_
*1881 _1387_
*1882 _1388_
*1883 _1389_
*1884 _1390_
*1885 _1391_
*1886 _1392_
*1887 _1393_
*1888 _1394_
*1889 _1395_
*1890 _1396_
*1891 _1397_
*1892 _1398_
*1893 _1399_
*1894 _1400_
*1895 _1401_
*1896 _1402_
*1897 _1403_
*1898 _1404_
*1899 _1405_
*1900 _1406_
*1901 _1407_
*1902 _1408_
*1903 _1409_
*1904 _1410_
*1905 _1411_
*1906 _1412_
*1907 _1413_
*1908 _1414_
*1909 _1415_
*1910 _1416_
*1911 _1417_
*1912 _1418_
*1913 _1419_
*1914 _1420_
*1915 _1421_
*1916 _1422_
*1917 _1423_
*1918 _1424_
*1919 _1425_
*1920 _1426_
*1921 _1427_
*1922 _1428_
*1923 _1429_
*1924 _1430_
*1925 _1431_
*1926 _1432_
*1927 _1433_
*1928 _1434_
*1929 _1435_
*1930 _1436_
*1931 _1437_
*1932 _1438_
*1933 _1439_
*1934 _1440_
*1935 _1441_
*1936 _1442_
*1937 _1443_
*1938 _1444_
*1939 _1445_
*1940 _1446_
*1941 _1447_
*1942 _1448_
*1943 _1449_
*1944 _1450_
*1945 _1451_
*1946 _1452_
*1947 _1453_
*1948 _1454_
*1949 _1455_
*1950 _1456_
*1951 _1457_
*1952 _1458_
*1953 _1459_
*1954 _1460_
*1955 _1461_
*1956 _1462_
*1957 _1463_
*1958 _1464_
*1959 _1465_
*1960 _1466_
*1961 _1467_
*1962 _1468_
*1963 _1469_
*1964 _1470_
*1965 _1471_
*1966 _1472_
*1967 _1473_
*1968 _1474_
*1969 _1475_
*1970 _1476_
*1971 _1477_
*1972 _1478_
*1973 _1479_
*1974 _1480_
*1975 _1481_
*1976 _1482_
*1977 _1483_
*1978 _1484_
*1979 _1485_
*1980 _1486_
*1981 _1487_
*1982 _1488_
*1983 _1489_
*1984 _1490_
*1985 _1491_
*1986 _1492_
*1987 _1493_
*1988 _1494_
*1989 _1495_
*1990 _1496_
*1991 _1497_
*1992 _1498_
*1993 _1499_
*1994 _1500_
*1995 _1501_
*1996 _1502_
*1997 _1503_
*1998 _1504_
*1999 _1505_
*2000 _1506_
*2001 _1507_
*2002 _1508_
*2003 _1509_
*2004 _1510_
*2005 _1511_
*2006 _1512_
*2007 _1513_
*2008 _1514_
*2009 _1515_
*2010 _1516_
*2011 _1517_
*2012 _1518_
*2013 _1519_
*2014 _1520_
*2015 _1521_
*2016 _1522_
*2017 _1523_
*2018 _1524_
*2019 _1525_
*2020 _1526_
*2021 _1527_
*2022 _1528_
*2023 _1529_
*2024 _1530_
*2025 _1531_
*2026 _1532_
*2027 _1533_
*2028 _1534_
*2029 _1535_
*2030 _1536_
*2031 _1537_
*2032 _1538_
*2033 _1539_
*2034 _1540_