*SPEF "ieee 1481-1999"
*DESIGN "tt_um_brandonramos_VGA_Pong_with_NES_Controllers"
*DATE "21:55:53 Friday October 25, 2024"
*VENDOR "The OpenROAD Project"
*PROGRAM "OpenROAD"
*VERSION "v2.0-16649-g40811f37f"
*DESIGN_FLOW "NAME_SCOPE LOCAL" "PIN_CAP NONE"
*DIVIDER /
*DELIMITER :
*BUS_DELIMITER []
*T_UNIT 1 NS
*C_UNIT 1 PF
*R_UNIT 1 OHM
*L_UNIT 1 HENRY

*NAME_MAP
*1 Pong\.b
*2 Pong\.control_unit\.NES_Controller_Left\.state_NESController\[0\]
*3 Pong\.control_unit\.NES_Controller_Left\.state_NESController\[10\]
*4 Pong\.control_unit\.NES_Controller_Left\.state_NESController\[11\]
*5 Pong\.control_unit\.NES_Controller_Left\.state_NESController\[12\]
*6 Pong\.control_unit\.NES_Controller_Left\.state_NESController\[13\]
*7 Pong\.control_unit\.NES_Controller_Left\.state_NESController\[14\]
*8 Pong\.control_unit\.NES_Controller_Left\.state_NESController\[15\]
*9 Pong\.control_unit\.NES_Controller_Left\.state_NESController\[16\]
*10 Pong\.control_unit\.NES_Controller_Left\.state_NESController\[17\]
*11 Pong\.control_unit\.NES_Controller_Left\.state_NESController\[18\]
*12 Pong\.control_unit\.NES_Controller_Left\.state_NESController\[1\]
*13 Pong\.control_unit\.NES_Controller_Left\.state_NESController\[2\]
*14 Pong\.control_unit\.NES_Controller_Left\.state_NESController\[3\]
*15 Pong\.control_unit\.NES_Controller_Left\.state_NESController\[4\]
*16 Pong\.control_unit\.NES_Controller_Left\.state_NESController\[5\]
*17 Pong\.control_unit\.NES_Controller_Left\.state_NESController\[6\]
*18 Pong\.control_unit\.NES_Controller_Left\.state_NESController\[7\]
*19 Pong\.control_unit\.NES_Controller_Left\.state_NESController\[8\]
*20 Pong\.control_unit\.NES_Controller_Left\.state_NESController\[9\]
*21 Pong\.control_unit\.NES_Controller_Right\.state_NESController\[0\]
*22 Pong\.control_unit\.NES_Controller_Right\.state_NESController\[10\]
*23 Pong\.control_unit\.NES_Controller_Right\.state_NESController\[11\]
*24 Pong\.control_unit\.NES_Controller_Right\.state_NESController\[12\]
*25 Pong\.control_unit\.NES_Controller_Right\.state_NESController\[13\]
*26 Pong\.control_unit\.NES_Controller_Right\.state_NESController\[14\]
*27 Pong\.control_unit\.NES_Controller_Right\.state_NESController\[15\]
*28 Pong\.control_unit\.NES_Controller_Right\.state_NESController\[16\]
*29 Pong\.control_unit\.NES_Controller_Right\.state_NESController\[17\]
*30 Pong\.control_unit\.NES_Controller_Right\.state_NESController\[18\]
*31 Pong\.control_unit\.NES_Controller_Right\.state_NESController\[1\]
*32 Pong\.control_unit\.NES_Controller_Right\.state_NESController\[2\]
*33 Pong\.control_unit\.NES_Controller_Right\.state_NESController\[3\]
*34 Pong\.control_unit\.NES_Controller_Right\.state_NESController\[4\]
*35 Pong\.control_unit\.NES_Controller_Right\.state_NESController\[5\]
*36 Pong\.control_unit\.NES_Controller_Right\.state_NESController\[6\]
*37 Pong\.control_unit\.NES_Controller_Right\.state_NESController\[7\]
*38 Pong\.control_unit\.NES_Controller_Right\.state_NESController\[8\]
*39 Pong\.control_unit\.NES_Controller_Right\.state_NESController\[9\]
*40 Pong\.control_unit\.state_ballMovement\[0\]
*41 Pong\.control_unit\.state_ballMovement\[1\]
*42 Pong\.control_unit\.state_ballMovement\[2\]
*43 Pong\.control_unit\.state_ballMovement\[3\]
*44 Pong\.control_unit\.state_ballMovement\[4\]
*45 Pong\.datapath\.Ball_Clock\.Q\[0\]
*46 Pong\.datapath\.Ball_Clock\.Q\[10\]
*47 Pong\.datapath\.Ball_Clock\.Q\[11\]
*48 Pong\.datapath\.Ball_Clock\.Q\[12\]
*49 Pong\.datapath\.Ball_Clock\.Q\[13\]
*50 Pong\.datapath\.Ball_Clock\.Q\[14\]
*51 Pong\.datapath\.Ball_Clock\.Q\[15\]
*52 Pong\.datapath\.Ball_Clock\.Q\[16\]
*53 Pong\.datapath\.Ball_Clock\.Q\[1\]
*54 Pong\.datapath\.Ball_Clock\.Q\[2\]
*55 Pong\.datapath\.Ball_Clock\.Q\[3\]
*56 Pong\.datapath\.Ball_Clock\.Q\[4\]
*57 Pong\.datapath\.Ball_Clock\.Q\[5\]
*58 Pong\.datapath\.Ball_Clock\.Q\[6\]
*59 Pong\.datapath\.Ball_Clock\.Q\[7\]
*60 Pong\.datapath\.Ball_Clock\.Q\[8\]
*61 Pong\.datapath\.Ball_Clock\.Q\[9\]
*62 Pong\.datapath\.Ball_Clock\.roll
*63 Pong\.datapath\.NES_activity_Left\[2\]
*64 Pong\.datapath\.NES_activity_Left\[3\]
*65 Pong\.datapath\.NES_activity_Left\[4\]
*66 Pong\.datapath\.NES_activity_Left\[5\]
*67 Pong\.datapath\.NES_activity_Right\[2\]
*68 Pong\.datapath\.NES_activity_Right\[3\]
*69 Pong\.datapath\.NES_activity_Right\[4\]
*70 Pong\.datapath\.NES_activity_Right\[5\]
*71 Pong\.datapath\.NES_counter_left\.Q\[0\]
*72 Pong\.datapath\.NES_counter_left\.Q\[1\]
*73 Pong\.datapath\.NES_counter_left\.Q\[2\]
*74 Pong\.datapath\.NES_counter_left\.Q\[3\]
*75 Pong\.datapath\.NES_counter_left\.Q\[4\]
*76 Pong\.datapath\.NES_counter_left\.Q\[5\]
*77 Pong\.datapath\.NES_counter_left\.Q\[6\]
*78 Pong\.datapath\.NES_counter_left\.Q\[7\]
*79 Pong\.datapath\.NES_counter_right\.Q\[0\]
*80 Pong\.datapath\.NES_counter_right\.Q\[1\]
*81 Pong\.datapath\.NES_counter_right\.Q\[2\]
*82 Pong\.datapath\.NES_counter_right\.Q\[3\]
*83 Pong\.datapath\.NES_counter_right\.Q\[4\]
*84 Pong\.datapath\.NES_counter_right\.Q\[5\]
*85 Pong\.datapath\.NES_counter_right\.Q\[6\]
*86 Pong\.datapath\.NES_counter_right\.Q\[7\]
*87 Pong\.datapath\.NES_delay_counter_left\.Q\[0\]
*88 Pong\.datapath\.NES_delay_counter_left\.Q\[10\]
*89 Pong\.datapath\.NES_delay_counter_left\.Q\[11\]
*90 Pong\.datapath\.NES_delay_counter_left\.Q\[12\]
*91 Pong\.datapath\.NES_delay_counter_left\.Q\[13\]
*92 Pong\.datapath\.NES_delay_counter_left\.Q\[14\]
*93 Pong\.datapath\.NES_delay_counter_left\.Q\[15\]
*94 Pong\.datapath\.NES_delay_counter_left\.Q\[16\]
*95 Pong\.datapath\.NES_delay_counter_left\.Q\[17\]
*96 Pong\.datapath\.NES_delay_counter_left\.Q\[18\]
*97 Pong\.datapath\.NES_delay_counter_left\.Q\[1\]
*98 Pong\.datapath\.NES_delay_counter_left\.Q\[2\]
*99 Pong\.datapath\.NES_delay_counter_left\.Q\[3\]
*100 Pong\.datapath\.NES_delay_counter_left\.Q\[4\]
*101 Pong\.datapath\.NES_delay_counter_left\.Q\[5\]
*102 Pong\.datapath\.NES_delay_counter_left\.Q\[6\]
*103 Pong\.datapath\.NES_delay_counter_left\.Q\[7\]
*104 Pong\.datapath\.NES_delay_counter_left\.Q\[8\]
*105 Pong\.datapath\.NES_delay_counter_left\.Q\[9\]
*106 Pong\.datapath\.NES_delay_counter_right\.Q\[0\]
*107 Pong\.datapath\.NES_delay_counter_right\.Q\[10\]
*108 Pong\.datapath\.NES_delay_counter_right\.Q\[11\]
*109 Pong\.datapath\.NES_delay_counter_right\.Q\[12\]
*110 Pong\.datapath\.NES_delay_counter_right\.Q\[13\]
*111 Pong\.datapath\.NES_delay_counter_right\.Q\[14\]
*112 Pong\.datapath\.NES_delay_counter_right\.Q\[15\]
*113 Pong\.datapath\.NES_delay_counter_right\.Q\[16\]
*114 Pong\.datapath\.NES_delay_counter_right\.Q\[17\]
*115 Pong\.datapath\.NES_delay_counter_right\.Q\[18\]
*116 Pong\.datapath\.NES_delay_counter_right\.Q\[1\]
*117 Pong\.datapath\.NES_delay_counter_right\.Q\[2\]
*118 Pong\.datapath\.NES_delay_counter_right\.Q\[3\]
*119 Pong\.datapath\.NES_delay_counter_right\.Q\[4\]
*120 Pong\.datapath\.NES_delay_counter_right\.Q\[5\]
*121 Pong\.datapath\.NES_delay_counter_right\.Q\[6\]
*122 Pong\.datapath\.NES_delay_counter_right\.Q\[7\]
*123 Pong\.datapath\.NES_delay_counter_right\.Q\[8\]
*124 Pong\.datapath\.NES_delay_counter_right\.Q\[9\]
*125 Pong\.datapath\.NES_wire_Left\[2\]
*126 Pong\.datapath\.NES_wire_Left\[3\]
*127 Pong\.datapath\.NES_wire_Left\[4\]
*128 Pong\.datapath\.NES_wire_Left\[5\]
*129 Pong\.datapath\.NES_wire_Right\[2\]
*130 Pong\.datapath\.NES_wire_Right\[3\]
*131 Pong\.datapath\.NES_wire_Right\[4\]
*132 Pong\.datapath\.NES_wire_Right\[5\]
*133 Pong\.datapath\.ballFunction\.ball_center_x\[0\]
*134 Pong\.datapath\.ballFunction\.ball_center_x\[1\]
*135 Pong\.datapath\.ballFunction\.ball_center_x\[2\]
*136 Pong\.datapath\.ballFunction\.ball_center_x\[3\]
*137 Pong\.datapath\.ballFunction\.ball_center_x\[4\]
*138 Pong\.datapath\.ballFunction\.ball_center_x\[5\]
*139 Pong\.datapath\.ballFunction\.ball_center_x\[6\]
*140 Pong\.datapath\.ballFunction\.ball_center_x\[7\]
*141 Pong\.datapath\.ballFunction\.ball_center_x\[8\]
*142 Pong\.datapath\.ballFunction\.ball_center_x\[9\]
*143 Pong\.datapath\.ballFunction\.ball_center_y\[0\]
*144 Pong\.datapath\.ballFunction\.ball_center_y\[1\]
*145 Pong\.datapath\.ballFunction\.ball_center_y\[2\]
*146 Pong\.datapath\.ballFunction\.ball_center_y\[3\]
*147 Pong\.datapath\.ballFunction\.ball_center_y\[4\]
*148 Pong\.datapath\.ballFunction\.ball_center_y\[5\]
*149 Pong\.datapath\.ballFunction\.ball_center_y\[6\]
*150 Pong\.datapath\.ballFunction\.ball_center_y\[7\]
*151 Pong\.datapath\.ballFunction\.ball_center_y\[8\]
*152 Pong\.datapath\.ballFunction\.ball_center_y\[9\]
*153 Pong\.datapath\.ballFunction\.reset_n
*154 Pong\.datapath\.h_sync
*155 Pong\.datapath\.leftPaddle\[0\]
*156 Pong\.datapath\.leftPaddle\[1\]
*157 Pong\.datapath\.leftPaddle\[2\]
*158 Pong\.datapath\.leftPaddle\[3\]
*159 Pong\.datapath\.leftPaddle\[4\]
*160 Pong\.datapath\.leftPaddle\[5\]
*161 Pong\.datapath\.leftPaddle\[6\]
*162 Pong\.datapath\.leftPaddle\[7\]
*163 Pong\.datapath\.leftPaddle\[8\]
*164 Pong\.datapath\.leftPaddle\[9\]
*165 Pong\.datapath\.old_NES_Left\[2\]
*166 Pong\.datapath\.old_NES_Left\[3\]
*167 Pong\.datapath\.old_NES_Left\[4\]
*168 Pong\.datapath\.old_NES_Left\[5\]
*169 Pong\.datapath\.old_NES_Right\[2\]
*170 Pong\.datapath\.old_NES_Right\[3\]
*171 Pong\.datapath\.old_NES_Right\[4\]
*172 Pong\.datapath\.old_NES_Right\[5\]
*173 Pong\.datapath\.rightPaddle\[0\]
*174 Pong\.datapath\.rightPaddle\[1\]
*175 Pong\.datapath\.rightPaddle\[2\]
*176 Pong\.datapath\.rightPaddle\[3\]
*177 Pong\.datapath\.rightPaddle\[4\]
*178 Pong\.datapath\.rightPaddle\[5\]
*179 Pong\.datapath\.rightPaddle\[6\]
*180 Pong\.datapath\.rightPaddle\[7\]
*181 Pong\.datapath\.rightPaddle\[8\]
*182 Pong\.datapath\.rightPaddle\[9\]
*183 Pong\.datapath\.scoreLeft\[0\]
*184 Pong\.datapath\.scoreLeft\[1\]
*185 Pong\.datapath\.scoreLeft\[2\]
*186 Pong\.datapath\.scoreLeft\[3\]
*187 Pong\.datapath\.scoreRight\[0\]
*188 Pong\.datapath\.scoreRight\[1\]
*189 Pong\.datapath\.scoreRight\[2\]
*190 Pong\.datapath\.scoreRight\[3\]
*191 Pong\.datapath\.score_flag
*192 Pong\.datapath\.sw_ballMovement_reg\[0\]
*193 Pong\.datapath\.sw_ballMovement_reg\[2\]
*194 Pong\.datapath\.sw_ballMovement_reg\[3\]
*195 Pong\.datapath\.sw_ballMovement_reg\[4\]
*196 Pong\.datapath\.sw_ballMovement_reg\[5\]
*197 Pong\.datapath\.v_sync
*198 Pong\.datapath\.vga\.Column_Counter\.Q\[0\]
*199 Pong\.datapath\.vga\.Column_Counter\.Q\[1\]
*200 Pong\.datapath\.vga\.Column_Counter\.Q\[2\]
*201 Pong\.datapath\.vga\.Column_Counter\.Q\[3\]
*202 Pong\.datapath\.vga\.Column_Counter\.Q\[4\]
*203 Pong\.datapath\.vga\.Column_Counter\.Q\[5\]
*204 Pong\.datapath\.vga\.Column_Counter\.Q\[6\]
*205 Pong\.datapath\.vga\.Column_Counter\.Q\[7\]
*206 Pong\.datapath\.vga\.Column_Counter\.Q\[8\]
*207 Pong\.datapath\.vga\.Column_Counter\.Q\[9\]
*208 Pong\.datapath\.vga\.Row_Counter\.Q\[0\]
*209 Pong\.datapath\.vga\.Row_Counter\.Q\[1\]
*210 Pong\.datapath\.vga\.Row_Counter\.Q\[2\]
*211 Pong\.datapath\.vga\.Row_Counter\.Q\[3\]
*212 Pong\.datapath\.vga\.Row_Counter\.Q\[4\]
*213 Pong\.datapath\.vga\.Row_Counter\.Q\[5\]
*214 Pong\.datapath\.vga\.Row_Counter\.Q\[6\]
*215 Pong\.datapath\.vga\.Row_Counter\.Q\[7\]
*216 Pong\.datapath\.vga\.Row_Counter\.Q\[8\]
*217 Pong\.datapath\.vga\.Row_Counter\.Q\[9\]
*218 _0000_
*219 _0001_
*220 _0002_
*221 _0003_
*222 _0004_
*223 _0005_
*224 _0006_
*225 _0007_
*226 _0008_
*227 _0009_
*228 _0010_
*229 _0011_
*230 _0012_
*231 _0013_
*232 _0014_
*233 _0015_
*234 _0016_
*235 _0017_
*236 _0018_
*237 _0019_
*238 _0020_
*239 _0021_
*240 _0022_
*241 _0023_
*242 _0024_
*243 _0025_
*244 _0026_
*245 _0027_
*246 _0028_
*247 _0029_
*248 _0030_
*249 _0031_
*250 _0032_
*251 _0033_
*252 _0034_
*253 _0035_
*254 _0036_
*255 _0037_
*256 _0038_
*257 _0039_
*258 _0040_
*259 _0041_
*260 _0042_
*261 _0043_
*262 _0044_
*263 _0045_
*264 _0046_
*265 _0047_
*266 _0048_
*267 _0049_
*268 _0050_
*269 _0051_
*270 _0052_
*271 _0053_
*272 _0054_
*273 _0055_
*274 _0056_
*275 _0057_
*276 _0058_
*277 _0059_
*278 _0060_
*279 _0061_
*280 _0062_
*281 _0063_
*282 _0064_
*283 _0065_
*284 _0066_
*285 _0067_
*286 _0068_
*287 _0069_
*288 _0070_
*289 _0071_
*290 _0072_
*291 _0073_
*292 _0074_
*293 _0075_
*294 _0076_
*295 _0077_
*296 _0078_
*297 _0079_
*298 _0080_
*299 _0081_
*300 _0082_
*301 _0083_
*302 _0084_
*303 _0085_
*304 _0086_
*305 _0087_
*306 _0088_
*307 _0089_
*308 _0090_
*309 _0091_
*310 _0092_
*311 _0093_
*312 _0094_
*313 _0095_
*314 _0096_
*315 _0097_
*316 _0098_
*317 _0099_
*318 _0100_
*319 _0101_
*320 _0102_
*321 _0103_
*322 _0104_
*323 _0105_
*324 _0106_
*325 _0107_
*326 _0108_
*327 _0109_
*328 _0110_
*329 _0111_
*330 _0112_
*331 _0113_
*332 _0114_
*333 _0115_
*334 _0116_
*335 _0117_
*336 _0118_
*337 _0119_
*338 _0120_
*339 _0121_
*340 _0122_
*341 _0123_
*342 _0124_
*343 _0125_
*344 _0126_
*345 _0127_
*346 _0128_
*347 _0129_
*348 _0130_
*349 _0131_
*350 _0132_
*351 _0133_
*352 _0134_
*353 _0135_
*354 _0136_
*355 _0137_
*356 _0138_
*357 _0139_
*358 _0140_
*359 _0141_
*360 _0142_
*361 _0143_
*362 _0144_
*363 _0145_
*364 _0146_
*365 _0147_
*366 _0148_
*367 _0149_
*368 _0150_
*369 _0151_
*370 _0152_
*371 _0153_
*372 _0154_
*373 _0155_
*374 _0156_
*375 _0157_
*376 _0158_
*377 _0159_
*378 _0160_
*379 _0161_
*380 _0162_
*381 _0163_
*382 _0164_
*383 _0165_
*384 _0166_
*385 _0167_
*386 _0168_
*387 _0169_
*388 _0170_
*389 _0171_
*390 _0172_
*391 _0173_
*392 _0174_
*393 _0175_
*394 _0176_
*395 _0177_
*396 _0178_
*397 _0179_
*398 _0180_
*399 _0181_
*400 _0182_
*401 _0183_
*402 _0184_
*403 _0185_
*404 _0186_
*405 _0187_
*406 _0188_
*407 _0189_
*408 _0190_
*409 _0191_
*410 _0192_
*411 _0193_
*412 _0194_
*413 _0195_
*414 _0196_
*415 _0197_
*416 _0198_
*417 _0199_
*418 _0200_
*419 _0201_
*420 _0202_
*421 _0203_
*422 _0204_
*423 _0205_
*424 _0206_
*425 _0207_
*426 _0208_
*427 _0209_
*428 _0210_
*429 _0211_
*430 _0212_
*431 _0213_
*432 _0214_
*433 _0215_
*434 _0216_
*435 _0217_
*436 _0218_
*437 _0219_
*438 _0220_
*439 _0221_
*440 _0222_
*441 _0223_
*442 _0224_
*443 _0225_
*444 _0226_
*445 _0227_
*446 _0228_
*447 _0229_
*448 _0230_
*449 _0231_
*450 _0232_
*451 _0233_
*452 _0234_
*453 _0235_
*454 _0236_
*455 _0237_
*456 _0238_
*457 _0239_
*458 _0240_
*459 _0241_
*460 _0242_
*461 _0243_
*462 _0244_
*463 _0245_
*464 _0246_
*465 _0247_
*466 _0248_
*467 _0249_
*468 _0250_
*469 _0251_
*470 _0252_
*471 _0253_
*472 _0254_
*473 _0255_
*474 _0256_
*475 _0257_
*476 _0258_
*477 _0259_
*478 _0260_
*479 _0261_
*480 _0262_
*481 _0263_
*482 _0264_
*483 _0265_
*484 _0266_
*485 _0267_
*486 _0268_
*487 _0269_
*488 _0270_
*489 _0271_
*490 _0272_
*491 _0273_
*492 _0274_
*493 _0275_
*494 _0276_
*495 _0277_
*496 _0278_
*497 _0279_
*498 _0280_
*499 _0281_
*500 _0282_
*501 _0283_
*502 _0284_
*503 _0285_
*504 _0286_
*505 _0287_
*506 _0288_
*507 _0289_
*508 _0290_
*509 _0291_
*510 _0292_
*511 _0293_
*512 _0294_
*513 _0295_
*514 _0296_
*515 _0297_
*516 _0298_
*517 _0299_
*518 _0300_
*519 _0301_
*520 _0302_
*521 _0303_
*522 _0304_
*523 _0305_
*524 _0306_
*525 _0307_
*526 _0308_
*527 _0309_
*528 _0310_
*529 _0311_
*530 _0312_
*531 _0313_
*532 _0314_
*533 _0315_
*534 _0316_
*535 _0317_
*536 _0318_
*537 _0319_
*538 _0320_
*539 _0321_
*540 _0322_
*541 _0323_
*542 _0324_
*543 _0325_
*544 _0326_
*545 _0327_
*546 _0328_
*547 _0329_
*548 _0330_
*549 _0331_
*550 _0332_
*551 _0333_
*552 _0334_
*553 _0335_
*554 _0336_
*555 _0337_
*556 _0338_
*557 _0339_
*558 _0340_
*559 _0341_
*560 _0342_
*561 _0343_
*562 _0344_
*563 _0345_
*564 _0346_
*565 _0347_
*566 _0348_
*567 _0349_
*568 _0350_
*569 _0351_
*570 _0352_
*571 _0353_
*572 _0354_
*573 _0355_
*574 _0356_
*575 _0357_
*576 _0358_
*577 _0359_
*578 _0360_
*579 _0361_
*580 _0362_
*581 _0363_
*582 _0364_
*583 _0365_
*584 _0366_
*585 _0367_
*586 _0368_
*587 _0369_
*588 _0370_
*589 _0371_
*590 _0372_
*591 _0373_
*592 _0374_
*593 _0375_
*594 _0376_
*595 _0377_
*596 _0378_
*597 _0379_
*598 _0380_
*599 _0381_
*600 _0382_
*601 _0383_
*602 _0384_
*603 _0385_
*604 _0386_
*605 _0387_
*606 _0388_
*607 _0389_
*608 _0390_
*609 _0391_
*610 _0392_
*611 _0393_
*612 _0394_
*613 _0395_
*614 _0396_
*615 _0397_
*616 _0398_
*617 _0399_
*618 _0400_
*619 _0401_
*620 _0402_
*621 _0403_
*622 _0404_
*623 _0405_
*624 _0406_
*625 _0407_
*626 _0408_
*627 _0409_
*628 _0410_
*629 _0411_
*630 _0412_
*631 _0413_
*632 _0414_
*633 _0415_
*634 _0416_
*635 _0417_
*636 _0418_
*637 _0419_
*638 _0420_
*639 _0421_
*640 _0422_
*641 _0423_
*642 _0424_
*643 _0425_
*644 _0426_
*645 _0427_
*646 _0428_
*647 _0429_
*648 _0430_
*649 _0431_
*650 _0432_
*651 _0433_
*652 _0434_
*653 _0435_
*654 _0436_
*655 _0437_
*656 _0438_
*657 _0439_
*658 _0440_
*659 _0441_
*660 _0442_
*661 _0443_
*662 _0444_
*663 _0445_
*664 _0446_
*665 _0447_
*666 _0448_
*667 _0449_
*668 _0450_
*669 _0451_
*670 _0452_
*671 _0453_
*672 _0454_
*673 _0455_
*674 _0456_
*675 _0457_
*676 _0458_
*677 _0459_
*678 _0460_
*679 _0461_
*680 _0462_
*681 _0463_
*682 _0464_
*683 _0465_
*684 _0466_
*685 _0467_
*686 _0468_
*687 _0469_
*688 _0470_
*689 _0471_
*690 _0472_
*691 _0473_
*692 _0474_
*693 _0475_
*694 _0476_
*695 _0477_
*696 _0478_
*697 _0479_
*698 _0480_
*699 _0481_
*700 _0482_
*701 _0483_
*702 _0484_
*703 _0485_
*704 _0486_
*705 _0487_
*706 _0488_
*707 _0489_
*708 _0490_
*709 _0491_
*710 _0492_
*711 _0493_
*712 _0494_
*713 _0495_
*714 _0496_
*715 _0497_
*716 _0498_
*717 _0499_
*718 _0500_
*719 _0501_
*720 _0502_
*721 _0503_
*722 _0504_
*723 _0505_
*724 _0506_
*725 _0507_
*726 _0508_
*727 _0509_
*728 _0510_
*729 _0511_
*730 _0512_
*731 _0513_
*732 _0514_
*733 _0515_
*734 _0516_
*735 _0517_
*736 _0518_
*737 _0519_
*738 _0520_
*739 _0521_
*740 _0522_
*741 _0523_
*742 _0524_
*743 _0525_
*744 _0526_
*745 _0527_
*746 _0528_
*747 _0529_
*748 _0530_
*749 _0531_
*750 _0532_
*751 _0533_
*752 _0534_
*753 _0535_
*754 _0536_
*755 _0537_
*756 _0538_
*757 _0539_
*758 _0540_
*759 _0541_
*760 _0542_
*761 _0543_
*762 _0544_
*763 _0545_
*764 _0546_
*765 _0547_
*766 _0548_
*767 _0549_
*768 _0550_
*769 _0551_
*770 _0552_
*771 _0553_
*772 _0554_
*773 _0555_
*774 _0556_
*775 _0557_
*776 _0558_
*777 _0559_
*778 _0560_
*779 _0561_
*780 _0562_
*781 _0563_
*782 _0564_
*783 _0565_
*784 _0566_
*785 _0567_
*786 _0568_
*787 _0569_
*788 _0570_
*789 _0571_
*790 _0572_
*791 _0573_
*792 _0574_
*793 _0575_
*794 _0576_
*795 _0577_
*796 _0578_
*797 _0579_
*798 _0580_
*799 _0581_
*800 _0582_
*801 _0583_
*802 _0584_
*803 _0585_
*804 _0586_
*805 _0587_
*806 _0588_
*807 _0589_
*808 _0590_
*809 _0591_
*810 _0592_
*811 _0593_
*812 _0594_
*813 _0595_
*814 _0596_
*815 _0597_
*816 _0598_
*817 _0599_
*818 _0600_
*819 _0601_
*820 _0602_
*821 _0603_
*822 _0604_
*823 _0605_
*824 _0606_
*825 _0607_
*826 _0608_
*827 _0609_
*828 _0610_
*829 _0611_
*830 _0612_
*831 _0613_
*832 _0614_
*833 _0615_
*834 _0616_
*835 _0617_
*836 _0618_
*837 _0619_
*838 _0620_
*839 _0621_
*840 _0622_
*841 _0623_
*842 _0624_
*843 _0625_
*844 _0626_
*845 _0627_
*846 _0628_
*847 _0629_
*848 _0630_
*849 _0631_
*850 _0632_
*851 _0633_
*852 _0634_
*853 _0635_
*854 _0636_
*855 _0637_
*856 _0638_
*857 _0639_
*858 _0640_
*859 _0641_
*860 _0642_
*861 _0643_
*862 _0644_
*863 _0645_
*864 _0646_
*865 _0647_
*866 _0648_
*867 _0649_
*868 _0650_
*869 _0651_
*870 _0652_
*871 _0653_
*872 _0654_
*873 _0655_
*874 _0656_
*875 _0657_
*876 _0658_
*877 _0659_
*878 _0660_
*879 _0661_
*880 _0662_
*881 _0663_
*882 _0664_
*883 _0665_
*884 _0666_
*885 _0667_
*886 _0668_
*887 _0669_
*888 _0670_
*889 _0671_
*890 _0672_
*891 _0673_
*892 _0674_
*893 _0675_
*894 _0676_
*895 _0677_
*896 _0678_
*897 _0679_
*898 _0680_
*899 _0681_
*900 _0682_
*901 _0683_
*902 _0684_
*903 _0685_
*904 _0686_
*905 _0687_
*906 _0688_
*907 _0689_
*908 _0690_
*909 _0691_
*910 _0692_
*911 _0693_
*912 _0694_
*913 _0695_
*914 _0696_
*915 _0697_
*916 _0698_
*917 _0699_
*918 _0700_
*919 _0701_
*920 _0702_
*921 _0703_
*922 _0704_
*923 _0705_
*924 _0706_
*925 _0707_
*926 _0708_
*927 _0709_
*928 _0710_
*929 _0711_
*930 _0712_
*931 _0713_
*932 _0714_
*933 _0715_
*934 _0716_
*935 _0717_
*936 _0718_
*937 _0719_
*938 _0720_
*939 _0721_
*940 _0722_
*941 _0723_
*942 _0724_
*943 _0725_
*944 _0726_
*945 _0727_
*946 _0728_
*947 _0729_
*948 _0730_
*949 _0731_
*950 _0732_
*951 _0733_
*952 _0734_
*953 _0735_
*954 _0736_
*955 _0737_
*956 _0738_
*957 _0739_
*958 _0740_
*959 _0741_
*960 _0742_
*961 _0743_
*962 _0744_
*963 _0745_
*964 _0746_
*965 _0747_
*966 _0748_
*967 _0749_
*968 _0750_
*969 _0751_
*970 _0752_
*971 _0753_
*972 _0754_
*973 _0755_
*974 _0756_
*975 _0757_
*976 _0758_
*977 _0759_
*978 _0760_
*979 _0761_
*980 _0762_
*981 _0763_
*982 _0764_
*983 _0765_
*984 _0766_
*985 _0767_
*986 _0768_
*987 _0769_
*988 _0770_
*989 _0771_
*990 _0772_
*991 _0773_
*992 _0774_
*993 _0775_
*994 _0776_
*995 _0777_
*996 _0778_
*997 _0779_
*998 _0780_
*999 _0781_
*1000 _0782_
*1001 _0783_
*1002 _0784_
*1003 _0785_
*1004 _0786_
*1005 _0787_
*1006 _0788_
*1007 _0789_
*1008 _0790_
*1009 _0791_
*1010 _0792_
*1011 _0793_
*1012 _0794_
*1013 _0795_
*1014 _0796_
*1015 _0797_
*1016 _0798_
*1017 _0799_
*1018 _0800_
*1019 _0801_
*1020 _0802_
*1021 _0803_
*1022 _0804_
*1023 _0805_
*1024 _0806_
*1025 _0807_
*1026 _0808_
*1027 _0809_
*1028 _0810_
*1029 _0811_
*1030 _0812_
*1031 _0813_
*1032 _0814_
*1033 _0815_
*1034 _0816_
*1035 _0817_
*1036 _0818_
*1037 _0819_
*1038 _0820_
*1039 _0821_
*1040 _0822_
*1041 _0823_
*1042 _0824_
*1043 _0825_
*1044 _0826_
*1045 _0827_
*1046 _0828_
*1047 _0829_
*1048 _0830_
*1049 _0831_
*1050 _0832_
*1051 _0833_
*1052 _0834_
*1053 _0835_
*1054 _0836_
*1055 _0837_
*1056 _0838_
*1057 _0839_
*1058 _0840_
*1059 _0841_
*1060 _0842_
*1061 _0843_
*1062 _0844_
*1063 _0845_
*1064 _0846_
*1065 _0847_
*1066 _0848_
*1067 _0849_
*1068 _0850_
*1069 _0851_
*1070 _0852_
*1071 _0853_
*1072 _0854_
*1073 _0855_
*1074 _0856_
*1075 _0857_
*1076 _0858_
*1077 _0859_
*1078 _0860_
*1079 _0861_
*1080 _0862_
*1081 _0863_
*1082 _0864_
*1083 _0865_
*1084 _0866_
*1085 _0867_
*1086 _0868_
*1087 _0869_
*1088 _0870_
*1089 _0871_
*1090 _0872_
*1091 _0873_
*1092 _0874_
*1093 _0875_
*1094 _0876_
*1095 _0877_
*1096 _0878_
*1097 _0879_
*1098 _0880_
*1099 _0881_
*1100 _0882_
*1101 _0883_
*1102 _0884_
*1103 _0885_
*1104 _0886_
*1105 _0887_
*1106 _0888_
*1107 _0889_
*1108 _0890_
*1109 _0891_
*1110 _0892_
*1111 _0893_
*1112 _0894_
*1113 _0895_
*1114 _0896_
*1115 _0897_
*1116 _0898_
*1117 _0899_
*1118 _0900_
*1119 _0901_
*1120 _0902_
*1121 _0903_
*1122 _0904_
*1123 _0905_
*1124 _0906_
*1125 _0907_
*1126 _0908_
*1127 _0909_
*1128 _0910_
*1129 _0911_
*1130 _0912_
*1131 _0913_
*1132 _0914_
*1133 _0915_
*1134 _0916_
*1135 _0917_
*1136 _0918_
*1137 _0919_
*1138 _0920_
*1139 _0921_
*1140 _0922_
*1141 _0923_
*1142 _0924_
*1143 _0925_
*1144 _0926_
*1145 _0927_
*1146 _0928_
*1147 _0929_
*1148 _0930_
*1149 _0931_
*1150 _0932_
*1151 _0933_
*1152 _0934_
*1153 _0935_
*1154 _0936_
*1155 _0937_
*1156 _0938_
*1157 _0939_
*1158 _0940_
*1159 _0941_
*1160 _0942_
*1161 _0943_
*1162 _0944_
*1163 _0945_
*1164 _0946_
*1165 _0947_
*1166 _0948_
*1167 _0949_
*1168 _0950_
*1169 _0951_
*1170 _0952_
*1171 _0953_
*1172 _0954_
*1173 _0955_
*1174 _0956_
*1175 _0957_
*1176 _0958_
*1177 _0959_
*1178 _0960_
*1179 _0961_
*1180 _0962_
*1181 _0963_
*1182 _0964_
*1183 _0965_
*1184 _0966_
*1185 _0967_
*1186 _0968_
*1187 _0969_
*1188 _0970_
*1189 _0971_
*1190 _0972_
*1191 _0973_
*1192 _0974_
*1193 _0975_
*1194 _0976_
*1195 _0977_
*1196 _0978_
*1197 _0979_
*1198 _0980_
*1199 _0981_
*1200 _0982_
*1201 _0983_
*1202 _0984_
*1203 _0985_
*1204 _0986_
*1205 _0987_
*1206 _0988_
*1207 _0989_
*1208 _0990_
*1209 _0991_
*1210 _0992_
*1211 _0993_
*1212 _0994_
*1213 _0995_
*1214 _0996_
*1215 _0997_
*1216 _0998_
*1217 _0999_
*1218 _1000_
*1219 _1001_
*1220 _1002_
*1221 _1003_
*1222 _1004_
*1223 _1005_
*1224 _1006_
*1225 _1007_
*1226 _1008_
*1227 _1009_
*1228 _1010_
*1229 _1011_
*1230 _1012_
*1231 _1013_
*1232 _1014_
*1233 _1015_
*1234 _1016_
*1235 _1017_
*1236 _1018_
*1237 _1019_
*1238 _1020_
*1239 _1021_
*1240 _1022_
*1241 _1023_
*1242 _1024_
*1243 _1025_
*1244 _1026_
*1245 _1027_
*1246 _1028_
*1247 _1029_
*1248 _1030_
*1249 _1031_
*1250 _1032_
*1251 _1033_
*1252 _1034_
*1253 _1035_
*1254 _1036_
*1255 _1037_
*1256 _1038_
*1257 _1039_
*1258 _1040_
*1259 _1041_
*1260 _1042_
*1261 _1043_
*1262 _1044_
*1263 _1045_
*1264 _1046_
*1265 _1047_
*1266 _1048_
*1267 _1049_
*1268 _1050_
*1269 _1051_
*1270 _1052_
*1271 _1053_
*1272 _1054_
*1273 _1055_
*1274 _1056_
*1275 _1057_
*1276 _1058_
*1277 _1059_
*1278 _1060_
*1279 _1061_
*1280 _1062_
*1281 _1063_
*1282 _1064_
*1283 _1065_
*1284 _1066_
*1285 _1067_
*1286 _1068_
*1287 _1069_
*1288 _1070_
*1289 _1071_
*1290 _1072_
*1291 _1073_
*1292 _1074_
*1293 _1075_
*1294 _1076_
*1295 _1077_
*1296 _1078_
*1297 _1079_
*1298 _1080_
*1299 _1081_
*1300 _1082_
*1301 _1083_
*1302 _1084_
*1303 _1085_
*1304 _1086_
*1305 _1087_
*1306 _1088_
*1307 _1089_
*1308 _1090_
*1309 _1091_
*1310 _1092_
*1311 _1093_
*1312 _1094_
*1313 _1095_
*1314 _1096_
*1315 _1097_
*1316 _1098_
*1317 _1099_
*1318 _1100_
*1319 _1101_
*1320 _1102_
*1321 _1103_
*1322 _1104_
*1323 _1105_
*1324 _1106_
*1325 _1107_
*1326 _1108_
*1327 _1109_
*1328 _1110_
*1329 _1111_
*1330 _1112_
*1331 _1113_
*1332 _1114_
*1333 _1115_
*1334 _1116_
*1335 _1117_
*1336 _1118_
*1337 _1119_
*1338 _1120_
*1339 _1121_
*1340 _1122_
*1341 _1123_
*1342 _1124_
*1343 _1125_
*1344 _1126_
*1345 _1127_
*1346 _1128_
*1347 _1129_
*1348 _1130_
*1349 _1131_
*1350 _1132_
*1351 _1133_
*1352 _1134_
*1353 _1135_
*1354 _1136_
*1355 _1137_
*1356 _1138_
*1357 _1139_
*1358 _1140_
*1359 _1141_
*1360 _1142_
*1361 _1143_
*1362 _1144_
*1363 _1145_
*1364 _1146_
*1365 _1147_
*1366 _1148_
*1367 _1149_
*1368 _1150_
*1369 _1151_
*1370 _1152_
*1371 _1153_
*1372 _1154_
*1373 _1155_
*1374 _1156_
*1375 _1157_
*1376 _1158_
*1377 _1159_
*1378 _1160_
*1379 _1161_
*1380 _1162_
*1381 _1163_
*1382 _1164_
*1383 _1165_
*1384 _1166_
*1385 _1167_
*1386 _1168_
*1387 _1169_
*1388 _1170_
*1389 _1171_
*1390 _1172_
*1391 _1173_
*1392 _1174_
*1393 _1175_
*1394 _1176_
*1395 _1177_
*1396 _1178_
*1397 _1179_
*1398 _1180_
*1399 _1181_
*1400 _1182_
*1401 _1183_
*1402 _1184_
*1403 _1185_
*1404 _1186_
*1405 _1187_
*1406 _1188_
*1407 _1189_
*1408 _1190_
*1409 _1191_
*1410 _1192_
*1411 _1193_
*1412 _1194_
*1413 _1195_
*1414 _1196_
*1415 _1197_
*1416 _1198_
*1417 _1199_
*1418 _1200_
*1419 _1201_
*1420 _1202_
*1421 _1203_
*1422 _1204_
*1423 _1205_
*1424 _1206_
*1425 _1207_
*1426 _1208_
*1427 _1209_
*1428 _1210_
*1429 _1211_
*1430 _1212_
*1431 _1213_
*1432 _1214_
*1433 _1215_
*1434 _1216_
*1435 _1217_
*1436 _1218_
*1437 _1219_
*1438 _1220_
*1439 _1221_
*1440 _1222_
*1441 _1223_
*1442 _1224_
*1443 _1225_
*1444 _1226_
*1445 _1227_
*1446 _1228_
*1447 _1229_
*1448 _1230_
*1449 _1231_
*1450 _1232_
*1451 _1233_
*1452 _1234_
*1453 _1235_
*1454 _1236_
*1455 _1237_
*1456 _1238_
*1457 _1239_
*1458 _1240_
*1459 _1241_
*1460 _1242_
*1461 _1243_
*1462 _1244_
*1463 _1245_
*1464 _1246_
*1465 _1247_
*1466 _1248_
*1467 _1249_
*1468 _1250_
*1469 _1251_
*1470 _1252_
*1471 _1253_
*1472 _1254_
*1473 _1255_
*1474 _1256_
*1475 _1257_
*1476 _1258_
*1477 _1259_
*1478 _1260_
*1479 _1261_
*1480 _1262_
*1481 _1263_
*1482 _1264_
*1483 _1265_
*1484 _1266_
*1485 _1267_
*1486 _1268_
*1487 _1269_
*1488 _1270_
*1489 _1271_
*1490 _1272_
*1491 _1273_
*1492 _1274_
*1493 _1275_
*1494 _1276_
*1495 _1277_
*1496 _1278_
*1497 _1279_
*1498 _1280_
*1499 _1281_
*1500 _1282_
*1501 _1283_
*1502 _1284_
*1503 _1285_
*1504 _1286_
*1505 _1287_
*1506 _1288_
*1507 _1289_
*1508 _1290_
*1509 _1291_
*1510 _1292_
*1511 _1293_
*1512 _1294_
*1513 _1295_
*1514 _1296_
*1515 _1297_
*1516 _1298_
*1517 _1299_
*1518 _1300_
*1519 _1301_
*1520 _1302_
*1521 _1303_
*1522 _1304_
*1523 _1305_
*1524 _1306_
*1525 _1307_
*1526 _1308_
*1527 _1309_
*1528 _1310_
*1529 _1311_
*1530 _1312_
*1531 _1313_
*1532 _1314_
*1533 _1315_
*1534 _1316_
*1535 _1317_
*1536 _1318_
*1537 _1319_
*1538 _1320_
*1539 _1321_
*1540 _1322_
*1541 _1323_
*1542 _1324_
*1543 _1325_
*1544 _1326_
*1545 _1327_
*1546 _1328_
*1547 _1329_
*1548 _1330_
*1549 _1331_
*1550 _1332_
*1551 _1333_
*1552 _1334_
*1553 _1335_
*1554 _1336_
*1555 _1337_
*1556 _1338_
*1557 _1339_
*1558 _1340_
*1559 _1341_
*1560 _1342_
*1561 _1343_
*1562 _1344_
*1563 _1345_
*1564 _1346_
*1565 _1347_
*1566 _1348_
*1567 _1349_
*1568 _1350_
*1569 _1351_
*1570 _1352_
*1571 _1353_
*1572 _1354_
*1573 _1355_
*1574 _1356_
*1575 _1357_
*1576 _1358_
*1577 _1359_
*1578 _1360_
*1579 _1361_
*1580 _1362_
*1581 _1363_
*1582 _1364_
*1583 _1365_
*1584 _1366_
*1585 _1367_
*1586 _1368_
*1587 _1369_
*1588 _1370_
*1589 _1371_
*1590 _1372_
*1591 _1373_
*1592 _1374_
*1593 _1375_
*1594 _1376_
*1595 _1377_
*1596 _1378_
*1597 _1379_
*1598 _1380_
*1599 _1381_
*1600 _1382_
*1601 _1383_
*1602 _1384_
*1603 _1385_
*1604 _1386_
*1605 _1387_
*1606 _1388_
*1607 _1389_
*1608 _1390_
*1609 _1391_
*1610 _1392_
*1611 _1393_
*1612 _1394_
*1613 _1395_
*1614 _1396_
*1615 _1397_
*1616 _1398_
*1617 _1399_
*1618 _1400_
*1619 _1401_
*1620 _1402_
*1621 _1403_
*1622 _1404_
*1623 _1405_
*1624 _1406_
*1625 _1407_
*1626 _1408_
*1627 _1409_
*1628 _1410_
*1629 _1411_
*1630 _1412_
*1631 _1413_
*1632 _1414_
*1633 _1415_
*1634 _1416_
*1635 _1417_
*1636 _1418_
*1637 _1419_
*1638 _1420_
*1639 _1421_
*1640 _1422_
*1641 _1423_
*1642 _1424_
*1643 _1425_
*1644 _1426_
*1645 _1427_
*1646 _1428_
*1647 _1429_
*1648 _1430_
*1649 _1431_
*1650 _1432_
*1651 _1433_
*1652 _1434_
*1653 _1435_
*1654 _1436_
*1655 _1437_
*1656 _1438_
*1657 _1439_
*1658 _1440_
*1659 _1441_
*1660 _1442_
*1661 _1443_
*1662 _1444_
*1663 _1445_
*1664 _1446_
*1665 _1447_
*1666 _1448_
*1667 _1449_
*1668 _1450_
*1669 _1451_
*1670 _1452_
*1671 _1453_
*1672 _1454_
*1673 _1455_
*1674 _1456_
*1675 _1457_
*1676 _1458_
*1677 _1459_
*1678 _1460_
*1679 _1461_
*1680 _1462_
*1681 _1463_
*1682 _1464_
*1683 _1465_
*1684 _1466_
*1685 _1467_
*1686 _1468_
*1687 _1469_
*1688 _1470_
*1689 _1471_
*1690 _1472_
*1691 _1473_
*1692 _1474_
*1693 _1475_
*1694 _1476_
*1695 _1477_
*1696 _1478_
*1697 _1479_
*1698 _1480_
*1699 _1481_
*1700 _1482_
*1701 _1483_
*1702 _1484_
*1703 _1485_
*1704 _1486_
*1705 _1487_
*1706 _1488_
*1707 _1489_
*1708 _1490_
*1709 _1491_
*1710 _1492_
*1711 _1493_
*1712 _1494_
*1713 _1495_
*1714 _1496_
*1715 _1497_
*1716 _1498_
*1717 _1499_
*1718 _1500_
*1719 _1501_
*1720 _1502_
*1721 _1503_
*1722 _1504_
*1723 _1505_
*1724 _1506_
*1725 _1507_
*1726 _1508_