*SPEF "ieee 1481-1999"
*DESIGN "tt_um_crispy_vga"
*DATE "22:05:58 Monday October 28, 2024"
*VENDOR "The OpenROAD Project"
*PROGRAM "OpenROAD"
*VERSION "v2.0-16649-g40811f37f"
*DESIGN_FLOW "NAME_SCOPE LOCAL" "PIN_CAP NONE"
*DIVIDER /
*DELIMITER :
*BUS_DELIMITER []
*T_UNIT 1 NS
*C_UNIT 1 PF
*R_UNIT 1 OHM
*L_UNIT 1 HENRY

*NAME_MAP
*1 _0000_
*2 _0001_
*3 _0002_
*4 _0003_
*5 _0004_
*6 _0005_
*7 _0006_
*8 _0007_
*9 _0008_
*10 _0009_
*11 _0010_
*12 _0011_
*13 _0012_
*14 _0013_
*15 _0014_
*16 _0015_
*17 _0016_
*18 _0017_
*19 _0018_
*20 _0019_
*21 _0020_
*22 _0021_
*23 _0022_
*24 _0023_
*25 _0024_
*26 _0025_
*27 _0026_
*28 _0027_
*29 _0028_
*30 _0029_
*31 _0030_
*32 _0031_
*33 _0032_
*34 _0033_
*35 _0034_
*36 _0035_
*37 _0036_
*38 _0037_
*39 _0038_
*40 _0039_
*41 _0040_
*42 _0041_
*43 _0042_
*44 _0043_
*45 _0044_
*46 _0045_
*47 _0046_
*48 _0047_
*49 _0048_
*50 _0049_
*51 _0050_
*52 _0051_
*53 _0052_
*54 _0053_
*55 _0054_
*56 _0055_
*57 _0056_
*58 _0057_
*59 _0058_
*60 _0059_
*61 _0060_
*62 _0061_
*63 _0062_
*64 _0063_
*65 _0064_
*66 _0065_
*67 _0066_
*68 _0067_
*69 _0068_
*70 _0069_
*71 _0070_
*72 _0071_
*73 _0072_
*74 _0073_
*75 _0074_
*76 _0075_
*77 _0076_
*78 _0077_
*79 _0078_
*80 _0079_
*81 _0080_
*82 _0081_
*83 _0082_
*84 _0083_
*85 _0084_
*86 _0085_
*87 _0086_
*88 _0087_
*89 _0088_
*90 _0089_
*91 _0090_
*92 _0091_
*93 _0092_
*94 _0093_
*95 _0094_
*96 _0095_
*97 _0096_
*98 _0097_
*99 _0098_
*100 _0099_
*101 _0100_
*102 _0101_
*103 _0102_
*104 _0103_
*105 _0104_
*106 _0105_
*107 _0106_
*108 _0107_
*109 _0108_
*110 _0109_
*111 _0110_
*112 _0111_
*113 _0112_
*114 _0113_
*115 _0114_
*116 _0115_
*117 _0116_
*118 _0117_
*119 _0118_
*120 _0119_
*121 _0120_
*122 _0121_
*123 _0122_
*124 _0123_
*125 _0124_
*126 _0125_
*127 _0126_
*128 _0127_
*129 _0128_
*130 _0129_
*131 _0130_
*132 _0131_
*133 _0132_
*134 _0133_
*135 _0134_
*136 _0135_
*137 _0136_
*138 _0137_
*139 _0138_
*140 _0139_
*141 _0140_
*142 _0141_
*143 _0142_
*144 _0143_
*145 _0144_
*146 _0145_
*147 _0146_
*148 _0147_
*149 _0148_
*150 _0149_
*151 _0150_
*152 _0151_
*153 _0152_
*154 _0153_
*155 _0154_
*156 _0155_
*157 _0156_
*158 _0157_
*159 _0158_
*160 _0159_
*161 _0160_
*162 _0161_
*163 _0162_
*164 _0163_
*165 _0164_
*166 _0165_
*167 _0166_
*168 _0167_
*169 _0168_
*170 _0169_
*171 _0170_
*172 _0171_
*173 _0172_
*174 _0173_
*175 _0174_
*176 _0175_
*177 _0176_
*178 _0177_
*179 _0178_
*180 _0179_
*181 _0180_
*182 _0181_
*183 _0182_
*184 _0183_
*185 _0184_
*186 _0185_
*187 _0186_
*188 _0187_
*189 _0188_
*190 _0189_
*191 _0190_
*192 _0191_
*193 _0192_
*194 _0193_
*195 _0194_
*196 _0195_
*197 _0196_
*198 _0197_
*199 _0198_
*200 _0199_
*201 _0200_
*202 _0201_
*203 _0202_
*204 _0203_
*205 _0204_
*206 _0205_
*207 _0206_
*208 _0207_
*209 _0208_
*210 _0209_
*211 _0210_
*212 _0211_
*213 _0212_
*214 _0213_
*215 _0214_
*216 _0215_
*217 _0216_
*218 _0217_
*219 _0218_
*220 _0219_
*221 _0220_
*222 _0221_
*223 _0222_
*224 _0223_
*225 _0224_
*226 _0225_
*227 _0226_
*228 _0227_
*229 _0228_
*230 _0229_
*231 _0230_
*232 _0231_
*233 _0232_
*234 _0233_
*235 _0234_
*236 _0235_
*237 _0236_
*238 _0237_
*239 _0238_
*240 _0239_
*241 _0240_
*242 _0241_
*243 _0242_
*244 _0243_
*245 _0244_
*246 _0245_
*247 _0246_
*248 _0247_
*249 _0248_
*250 _0249_
*251 _0250_
*252 _0251_
*253 _0252_
*254 _0253_
*255 _0254_
*256 _0255_
*257 _0256_
*258 _0257_
*259 _0258_
*260 _0259_
*261 _0260_
*262 _0261_
*263 _0262_
*264 _0263_
*265 _0264_
*266 _0265_
*267 _0266_
*268 _0267_
*269 _0268_
*270 _0269_
*271 _0270_
*272 _0271_
*273 _0272_
*274 _0273_
*275 _0274_
*276 _0275_
*277 _0276_
*278 _0277_
*279 _0278_
*280 _0279_
*281 _0280_
*282 _0281_
*283 _0282_
*284 _0283_
*285 _0284_
*286 _0285_
*287 _0286_
*288 _0287_
*289 _0288_
*290 _0289_
*291 _0290_
*292 _0291_
*293 _0292_
*294 _0293_
*295 _0294_
*296 _0295_
*297 _0296_
*298 _0297_
*299 _0298_
*300 _0299_
*301 _0300_
*302 _0301_
*303 _0302_
*304 _0303_
*305 _0304_
*306 _0305_
*307 _0306_
*308 _0307_
*309 _0308_
*310 _0309_
*311 _0310_
*312 _0311_
*313 _0312_
*314 _0313_
*315 _0314_
*316 _0315_
*317 _0316_
*318 _0317_
*319 _0318_
*320 _0319_
*321 _0320_
*322 _0321_
*323 _0322_
*324 _0323_
*325 _0324_
*326 _0325_
*327 _0326_
*328 _0327_
*329 _0328_
*330 _0329_
*331 _0330_
*332 _0331_
*333 _0332_
*334 _0333_
*335 _0334_
*336 _0335_
*337 _0336_
*338 _0337_
*339 _0338_
*340 _0339_
*341 _0340_
*342 _0341_
*343 _0342_
*344 _0343_
*345 _0344_
*346 _0345_
*347 _0346_
*348 _0347_
*349 _0348_
*350 _0349_
*351 _0350_
*352 _0351_
*353 _0352_
*354 _0353_
*355 _0354_
*356 _0355_
*357 _0356_
*358 _0357_
*359 _0358_
*360 _0359_
*361 _0360_
*362 _0361_
*363 _0362_
*364 _0363_
*365 _0364_
*366 _0365_
*367 _0366_
*368 _0367_
*369 _0368_
*370 _0369_
*371 _0370_
*372 _0371_
*373 _0372_
*374 _0373_
*375 _0374_
*376 _0375_
*377 _0376_
*378 _0377_
*379 _0378_
*380 _0379_
*381 _0380_
*382 _0381_
*383 _0382_
*384 _0383_
*385 _0384_
*386 _0385_
*387 _0386_
*388 _0387_
*389 _0388_
*390 _0389_
*391 _0390_
*392 _0391_
*393 _0392_
*394 _0393_
*395 _0394_
*396 _0395_
*397 _0396_
*398 _0397_
*399 _0398_
*400 _0399_
*401 _0400_
*402 _0401_
*403 _0402_
*404 _0403_
*405 _0404_
*406 _0405_
*407 _0406_
*408 _0407_
*409 _0408_
*410 _0409_
*411 _0410_
*412 _0411_
*413 _0412_
*414 _0413_
*415 _0414_
*416 _0415_
*417 _0416_
*418 _0417_
*419 _0418_
*420 _0419_
*421 _0420_
*422 _0421_
*423 _0422_
*424 _0423_
*425 _0424_
*426 _0425_
*427 _0426_
*428 _0427_
*429 _0428_
*430 _0429_
*431 _0430_
*432 _0431_
*433 _0432_
*434 _0433_
*435 _0434_
*436 _0435_
*437 _0436_
*438 _0437_
*439 _0438_
*440 _0439_
*441 _0440_
*442 _0441_
*443 _0442_
*444 _0443_
*445 _0444_
*446 _0445_
*447 _0446_
*448 _0447_
*449 _0448_
*450 _0449_
*451 _0450_
*452 _0451_
*453 _0452_
*454 _0453_
*455 _0454_
*456 _0455_
*457 _0456_
*458 _0457_
*459 _0458_
*460 _0459_
*461 _0460_
*462 _0461_
*463 _0462_
*464 _0463_
*465 _0464_
*466 _0465_
*467 _0466_
*468 _0467_
*469 _0468_
*470 _0469_
*471 _0470_
*472 _0471_
*473 _0472_
*474 _0473_
*475 _0474_
*476 _0475_
*477 _0476_
*478 _0477_
*479 _0478_
*480 _0479_
*481 _0480_
*482 _0481_
*483 _0482_
*484 _0483_
*485 _0484_
*486 _0485_
*487 _0486_
*488 _0487_
*489 _0488_
*490 _0489_
*491 _0490_
*492 _0491_
*493 _0492_
*494 _0493_
*495 _0494_
*496 _0495_
*497 _0496_
*498 _0497_
*499 _0498_
*500 _0499_
*501 _0500_
*502 _0501_
*503 _0502_
*504 _0503_
*505 _0504_
*506 _0505_
*507 _0506_
*508 _0507_
*509 _0508_
*510 _0509_
*511 _0510_
*512 _0511_
*513 _0512_
*514 _0513_
*515 _0514_
*516 _0515_
*517 _0516_
*518 _0517_
*519 _0518_
*520 _0519_
*521 _0520_
*522 _0521_
*523 _0522_
*524 _0523_
*525 _0524_
*526 _0525_
*527 _0526_
*528 _0527_
*529 _0528_
*530 _0529_
*531 _0530_
*532 _0531_
*533 _0532_
*534 _0533_
*535 _0534_
*536 _0535_
*537 _0536_
*538 _0537_
*539 _0538_
*540 _0539_
*541 _0540_
*542 _0541_
*543 _0542_
*544 _0543_
*545 _0544_
*546 _0545_
*547 _0546_
*548 _0547_
*549 _0548_
*550 _0549_
*551 _0550_
*552 _0551_
*553 _0552_
*554 _0553_
*555 _0554_
*556 _0555_
*557 _0556_
*558 _0557_
*559 _0558_
*560 _0559_
*561 _0560_
*562 _0561_
*563 _0562_
*564 _0563_
*565 _0564_
*566 _0565_
*567 _0566_
*568 _0567_
*569 _0568_
*570 _0569_
*571 _0570_
*572 _0571_
*573 _0572_
*574 _0573_
*575 _0574_
*576 _0575_
*577 _0576_
*578 _0577_
*579 _0578_
*580 _0579_
*581 _0580_
*582 _0581_
*583 _0582_
*584 _0583_
*585 _0584_
*586 _0585_
*587 _0586_
*588 _0587_
*589 _0588_
*590 _0589_
*591 _0590_
*592 _0591_
*593 _0592_
*594 _0593_
*595 _0594_
*596 _0595_
*597 _0596_
*598 _0597_
*599 _0598_
*600 _0599_
*601 _0600_
*602 _0601_
*603 _0602_
*604 _0603_
*605 _0604_
*606 _0605_
*607 _0606_
*608 _0607_
*609 _0608_
*610 _0609_
*611 _0610_
*612 _0611_
*613 _0612_
*614 _0613_
*615 _0614_
*616 _0615_
*617 _0616_
*618 _0617_
*619 _0618_
*620 _0619_
*621 _0620_
*622 _0621_
*623 _0622_
*624 _0623_
*625 _0624_
*626 _0625_
*627 _0626_
*628 _0627_
*629 _0628_
*630 _0629_
*631 _0630_
*632 _0631_
*633 _0632_
*634 _0633_
*635 _0634_
*636 _0635_
*637 _0636_
*638 _0637_
*639 _0638_
*640 _0639_
*641 _0640_
*642 _0641_
*643 _0642_
*644 _0643_
*645 _0644_
*646 _0645_
*647 _0646_
*648 _0647_
*649 _0648_
*650 _0649_
*651 _0650_
*652 _0651_
*653 _0652_
*654 _0653_
*655 _0654_
*656 _0655_
*657 _0656_
*658 _0657_
*659 _0658_
*660 _0659_
*661 _0660_
*662 _0661_
*663 _0662_
*664 _0663_
*665 _0664_
*666 _0665_
*667 _0666_
*668 _0667_
*669 _0668_
*670 _0669_
*671 _0670_
*672 _0671_
*673 _0672_
*674 _0673_
*675 _0674_
*676 _0675_
*677 _0676_
*678 _0677_
*679 _0678_
*680 _0679_
*681 _0680_
*682 _0681_
*683 _0682_
*684 _0683_
*685 _0684_
*686 _0685_
*687 _0686_
*688 _0687_
*689 _0688_
*690 _0689_
*691 _0690_
*692 _0691_
*693 _0692_
*694 _0693_
*695 _0694_
*696 _0695_
*697 _0696_
*698 _0697_
*699 _0698_
*700 _0699_
*701 _0700_
*702 _0701_
*703 _0702_
*704 _0703_
*705 _0704_
*706 _0705_
*707 _0706_
*708 _0707_
*709 _0708_
*710 _0709_
*711 _0710_
*712 _0711_
*713 _0712_
*714 _0713_
*715 _0714_
*716 _0715_
*717 _0716_
*718 _0717_
*719 _0718_
*720 _0719_
*721 _0720_
*722 _0721_
*723 _0722_
*724 _0723_
*725 _0724_
*726 _0725_
*727 _0726_
*728 _0727_
*729 _0728_
*730 _0729_
*731 _0730_
*732 _0731_
*733 _0732_
*734 _0733_
*735 _0734_
*736 _0735_
*737 _0736_
*738 _0737_
*739 _0738_
*740 _0739_
*741 _0740_
*742 _0741_
*743 _0742_
*744 _0743_
*745 _0744_
*746 _0745_
*747 _0746_
*748 _0747_
*749 _0748_
*750 _0749_
*751 _0750_
*752 _0751_
*753 _0752_
*754 _0753_
*755 _0754_
*756 _0755_
*757 _0756_
*758 _0757_
*759 _0758_
*760 _0759_
*761 _0760_
*762 _0761_
*763 _0762_
*764 _0763_
*765 _0764_
*766 _0765_
*767 _0766_
*768 _0767_
*769 _0768_
*770 _0769_
*771 _0770_
*772 _0771_
*773 _0772_
*774 _0773_
*775 _0774_
*776 _0775_
*777 _0776_
*778 _0777_
*779 _0778_
*780 _0779_
*781 _0780_
*782 _0781_
*783 _0782_
*784 _0783_
*785 _0784_
*786 _0785_
*787 _0786_
*788 _0787_
*789 _0788_
*790 _0789_
*791 _0790_
*792 _0791_
*793 _0792_
*794 _0793_
*795 _0794_
*796 _0795_
*797 _0796_
*798 _0797_
*799 _0798_
*800 _0799_
*801 _0800_
*802 _0801_
*803 _0802_
*804 _0803_
*805 _0804_
*806 _0805_
*807 _0806_
*808 _0807_
*809 _0808_
*810 _0809_
*811 _0810_
*812 _0811_
*813 _0812_
*814 _0813_
*815 _0814_
*816 _0815_
*817 _0816_
*818 _0817_
*819 _0818_
*820 _0819_
*821 _0820_
*822 _0821_
*823 _0822_
*824 _0823_
*825 _0824_
*826 _0825_
*827 _0826_
*828 _0827_
*829 _0828_
*830 _0829_
*831 _0830_
*832 _0831_
*833 _0832_
*834 _0833_
*835 _0834_
*836 _0835_
*837 _0836_
*838 _0837_
*839 _0838_
*840 _0839_
*841 _0840_
*842 _0841_
*843 _0842_
*844 _0843_
*845 _0844_
*846 _0845_
*847 _0846_
*848 _0847_
*849 _0848_
*850 _0849_
*851 _0850_
*852 _0851_
*853 _0852_
*854 _0853_
*855 _0854_
*856 _0855_
*857 _0856_
*858 _0857_
*859 _0858_
*860 _0859_
*861 _0860_
*862 _0861_
*863 _0862_
*864 _0863_
*865 _0864_
*866 _0865_
*867 _0866_
*868 _0867_
*869 _0868_
*870 _0869_
*871 _0870_
*872 _0871_
*873 _0872_
*874 _0873_
*875 _0874_
*876 _0875_
*877 _0876_
*878 _0877_
*879 _0878_
*880 _0879_
*881 _0880_
*882 _0881_
*883 _0882_
*884 _0883_
*885 _0884_
*886 _0885_
*887 _0886_
*888 _0887_
*889 _0888_
*890 _0889_
*891 _0890_
*892 _0891_
*893 _0892_
*894 _0893_
*895 _0894_
*896 _0895_
*897 _0896_
*898 _0897_
*899 _0898_
*900 _0899_
*901 _0900_
*902 _0901_
*903 _0902_
*904 _0903_
*905 _0904_
*906 _0905_
*907 _0906_
*908 _0907_
*909 _0908_
*910 _0909_
*911 _0910_
*912 _0911_
*913 _0912_
*914 _0913_
*915 _0914_
*916 _0915_
*917 _0916_
*918 _0917_
*919 _0918_
*920 _0919_
*921 _0920_
*922 _0921_
*923 _0922_
*924 _0923_
*925 _0924_
*926 _0925_
*927 _0926_
*928 _0927_
*929 _0928_
*930 _0929_
*931 _0930_
*932 _0931_
*933 _0932_
*934 _0933_
*935 _0934_
*936 _0935_
*937 _0936_
*938 _0937_
*939 _0938_
*940 _0939_
*941 _0940_
*942 _0941_
*943 _0942_
*944 _0943_
*945 _0944_
*946 _0945_
*947 _0946_
*948 _0947_
*949 _0948_
*950 _0949_
*951 _0950_
*952 _0951_
*953 _0952_
*954 clknet_0_clk
*955 net93
*956 clk
*957 ena
*958 pcg_out\[0\]
*959 pcg_out\[1\]
*960 pcg_out\[2\]
*961 pcg_out\[3\]
*962 pcg_out\[4\]
*963 pcg_out\[5\]
*964 pcg_out\[6\]
*965 pcg_out\[7\]
*966 rst_n
*967 state\[0\]
*968 state\[10\]
*969 state\[11\]
*970 state\[12\]
*971 state\[13\]
*972 state\[14\]
*973 state\[15\]
*974 state\[1\]
*975 state\[2\]
*976 state\[3\]
*977 state\[4\]
*978 state\[5\]
*979 state\[6\]
*980 state\[7\]
*981 state\[8\]
*982 state\[9\]
*983 ui_in[0]
*984 ui_in[1]
*985 ui_in[2]
*986 ui_in[3]
*987 ui_in[4]
*988 ui_in[5]
*989 ui_in[6]
*990 ui_in[7]
*991 uio_in[0]
*992 uio_in[1]
*993 uio_in[2]
*994 uio_in[3]
*995 uio_in[4]
*996 uio_in[5]
*997 uio_in[6]
*998 uio_in[7]
*999 uio_oe[0]
*1000 uio_oe[1]
*1001 uio_oe[2]
*1002 uio_oe[3]
*1003 uio_oe[4]
*1004 uio_oe[5]
*1005 uio_oe[6]
*1006 uio_oe[7]
*1007 uio_out[0]
*1008 uio_out[1]
*1009 uio_out[2]
*1010 uio_out[3]
*1011 uio_out[4]
*1012 uio_out[5]
*1013 uio_out[6]
*1014 uio_out[7]
*1015 uo_out[0]
*1016 uo_out[1]
*1017 uo_out[2]
*1018 uo_out[3]
*1019 uo_out[4]
*1020 uo_out[5]
*1021 uo_out[6]
*1022 uo_out[7]
*1025 net1
*1026 net2
*1027 net3
*1028 net4
*1029 net5
*1030 net6
*1031 net7
*1032 net8
*1033 net9
*1034 net10
*1035 net11
*1036 net12
*1037 net13
*1038 net14
*1039 net15
*1040 net16
*1041 net17
*1042 net18
*1043 net19
*1044 net20
*1045 net21
*1046 net22
*1047 net23
*1048 net24
*1049 net25
*1050 net26
*1051 net27
*1052 net28
*1053 net29
*1054 net30
*1055 net31
*1056 net32
*1057 net33
*1058 net34
*1059 net35
*1060 net36
*1061 net37
*1062 net38
*1063 net39
*1064 net40
*1065 net41
*1066 net42
*1067 net43
*1068 net44
*1069 net45
*1070 net46
*1071 net47
*1072 net48
*1073 net49
*1074 net50
*1075 net51
*1076 net52
*1077 net53
*1078 net54
*1079 net55
*1080 net56
*1081 net57
*1082 net58
*1083 net59
*1084 net60
*1085 net61
*1086 net62
*1087 net63
*1088 net64
*1089 net65
*1090 net66
*1091 net67
*1092 net68
*1093 net69
*1094 net70
*1095 net71
*1096 net72
*1097 net73
*1098 net74
*1099 net75
*1100 net76
*1101 net77
*1102 net78
*1103 net79
*1104 net80
*1105 net81
*1106 net82
*1107 net83
*1108 net84
*1109 net85
*1110 net86
*1111 net87
*1112 net88
*1113 net89
*1114 net90
*1115 net91
*1116 net92
*1117 net94
*1118 net95
*1119 net96
*1120 net97
*1121 net98
*1122 net99
*1123 net100
*1124 net101
*1125 net102
*1126 net103
*1127 net104
*1128 net105
*1129 net106
*1130 net107
*1131 net108
*1132 net109
*1133 net110
*1134 net111
*1135 net112
*1136 net113
*1137 net114
*1138 net115
*1139 net116
*1140 net117
*1141 clknet_2_0__leaf_clk
*1142 clknet_2_1__leaf_clk
*1143 clknet_2_2__leaf_clk
*1144 clknet_2_3__leaf_clk
*1145 _0955_
*1146 _0956_
*1147 _0957_
*1148 _0958_
*1149 _0959_
*1150 _0960_
*1151 _0961_
*1152 _0962_
*1153 _0963_
*1154 _0964_
*1155 _0965_
*1156 _0966_
*1157 _0967_
*1158 _0968_
*1159 _0969_
*1160 _0970_
*1161 _0971_
*1162 _0972_
*1163 _0973_
*1164 _0974_
*1165 _0975_
*1166 _0976_
*1167 _0977_
*1168 _0978_
*1169 _0979_
*1170 _0980_
*1171 _0981_
*1172 _0982_
*1173 _0983_
*1174 _0984_
*1175 _0985_
*1176 _0986_
*1177 _0987_
*1178 _0988_
*1179 _0989_
*1180 _0990_
*1181 _0991_
*1182 _0992_
*1183 _0993_
*1184 _0994_
*1185 _0995_
*1186 _0996_
*1187 _0997_
*1188 _0998_
*1189 _0999_
*1190 _1000_
*1191 _1001_
*1192 _1002_
*1193 _1003_
*1194 _1004_
*1195 _1005_
*1196 _1006_
*1197 _1007_
*1198 _1008_
*1199 _1009_
*1200 _1010_
*1201 _1011_
*1202 _1012_
*1203 _1013_
*1204 _1014_
*1205 _1015_
*1206 _1016_
*1207 _1017_
*1208 _1018_
*1209 _1019_
*1210 _1020_
*1211 _1021_
*1212 _1022_
*1213 _1023_
*1214 _1024_
*1215 _1025_
*1216 _1026_
*1217 _1027_
*1218 _1028_
*1219 _1029_
*1220 _1030_
*1221 _1031_
*1222 _1032_
*1223 _1033_
*1224 _1034_
*1225 _1035_
*1226 _1036_
*1227 _1037_
*1228 _1038_
*1229 _1039_
*1230 _1040_
*1231 _1041_
*1232 _1042_
*1233 _1043_
*1234 _1044_
*1235 _1045_
*1236 _1046_
*1237 _1047_
*1238 _1048_
*1239 _1049_
*1240 _1050_
*1241 _1051_
*1242 _1052_
*1243 _1053_
*1244 _1054_
*1245 _1055_
*1246 _1056_
*1247 _1057_
*1248 _1058_
*1249 _1059_
*1250 _1060_
*1251 _1061_
*1252 _1062_
*1253 _1063_
*1254 _1064_
*1255 _1065_
*1256 _1066_
*1257 _1067_
*1258 _1068_
*1259 _1069_
*1260 _1070_
*1261 _1071_
*1262 _1072_
*1263 _1073_
*1264 _1074_
*1265 _1075_
*1266 _1076_
*1267 _1077_
*1268 _1078_
*1269 _1079_
*1270 _1080_
*1271 _1081_
*1272 _1082_
*1273 _1083_
*1274 _1084_
*1275 _1085_
*1276 _1086_
*1277 _1087_
*1278 _1088_
*1279 _1089_
*1280 _1090_
*1281 _1091_
*1282 _1092_
*1283 _1093_
*1284 _1094_
*1285 _1095_
*1286 _1096_
*1287 _1097_
*1288 _1098_
*1289 _1099_
*1290 _1100_
*1291 _1101_
*1292 _1102_
*1293 _1103_
*1294 _1104_
*1295 _1105_
*1296 _1106_
*1297 _1107_
*1298 _1108_
*1299 _1109_
*1300 _1110_
*1301 _1111_
*1302 _1112_
*1303 _1113_
*1304 _1114_
*1305 _1115_
*1306 _1116_
*1307 _1117_
*1308 _1118_
*1309 _1119_
*1310 _1120_
*1311 _1121_
*1312 _1122_
*1313 _1123_
*1314 _1124_
*1315 _1125_
*1316 _1126_
*1317 _1127_
*1318 _1128_
*1319 _1129_
*1320 _1130_
*1321 _1131_
*1322 _1132_
*1323 _1133_
*1324 _1134_
*1325 _1135_
*1326 _1136_
*1327 _1137_
*1328 _1138_
*1329 _1139_
*1330 _1140_
*1331 _1141_
*1332 _1142_
*1333 _1143_
*1334 _1144_
*1335 _1145_
*1336 _1146_
*1337 _1147_
*1338 _1148_
*1339 _1149_
*1340 _1150_
*1341 _1151_
*1342 _1152_
*1343 _1153_
*1344 _1154_
*1345 _1155_
*1346 _1156_
*1347 _1157_
*1348 _1158_
*1349 _1159_
*1350 _1160_
*1351 _1161_
*1352 _1162_
*1353 _1163_
*1354 _1164_
*1355 _1165_
*1356 _1166_
*1357 _1167_
*1358 _1168_
*1359 _1169_
*1360 _1170_
*1361 _1171_
*1362 _1172_
*1363 _1173_
*1364 _1174_
*1365 _1175_
*1366 _1176_
*1367 _1177_
*1368 _1178_
*1369 _1179_
*1370 _1180_
*1371 _1181_
*1372 _1182_
*1373 _1183_
*1374 _1184_
*1375 _1185_
*1376 _1186_
*1377 _1187_
*1378 _1188_
*1379 _1189_
*1380 _1190_
*1381 _1191_
*1382 _1192_
*1383 _1193_
*1384 _1194_
*1385 _1195_
*1386 _1196_
*1387 _1197_
*1388 _1198_
*1389 _1199_
*1390 _1200_
*1391 _1201_
*1392 _1202_
*1393 _1203_
*1394 _1204_
*1395 _1205_
*1396 _1206_
*1397 _1207_
*1398 _1208_
*1399 _1209_
*1400 _1210_
*1401 _1211_
*1402 _1212_
*1403 _1213_
*1404 _1214_
*1405 _1215_
*1406 _1216_
*1407 _1217_
*1408 _1218_
*1409 _1219_
*1410 _1220_
*1411 _1221_
*1412 _1222_
*1413 _1223_
*1414 _1224_
*1415 _1225_
*1416 _1226_
*1417 _1227_
*1418 _1228_
*1419 _1229_
*1420 _1230_
*1421 _1231_
*1422 _1232_
*1423 _1233_
*1424 _1234_
*1425 _1235_
*1426 _1236_
*1427 _1237_
*1428 _1238_
*1429 _1239_
*1430 _1240_
*1431 _1241_
*1432 _1242_
*1433 _1243_
*1434 _1244_
*1435 _1245_
*1436 _1246_
*1437 _1247_
*1438 _1248_
*1439 _1249_
*1440 _1250_
*1441 _1251_
*1442 _1252_
*1443 _1253_
*1444 _1254_
*1445 _1255_
*1446 _1256_
*1447 _1257_
*1448 _1258_
*1449 _1259_
*1450 _1260_
*1451 _1261_
*1452 _1262_
*1453 _1263_
*1454 _1264_
*1455 _1265_
*1456 _1266_
*1457 _1267_
*1458 _1268_
*1459 _1269_
*1460 _1270_
*1461 _1271_
*1462 _1272_
*1463 _1273_
*1464 _1274_
*1465 _1275_
*1466 _1276_
*1467 _1277_
*1468 _1278_
*1469 _1279_
*1470 _1280_
*1471 _1281_
*1472 _1282_
*1473 _1283_
*1474 _1284_
*1475 _1285_
*1476 _1286_
*1477 _1287_
*1478 _1288_
*1479 _1289_
*1480 _1290_
*1481 _1291_
*1482 _1292_
*1483 _1293_
*1484 _1294_
*1485 _1295_
*1486 _1296_
*1487 _1297_
*1488 _1298_
*1489 _1299_
*1490 _1300_
*1491 _1301_
*1492 _1302_
*1493 _1303_
*1494 _1304_
*1495 _1305_
*1496 _1306_
*1497 _1307_
*1498 _1308_
*1499 _1309_
*1500 _1310_
*1501 _1311_
*1502 _1312_
*1503 _1313_
*1504 _1314_
*1505 _1315_
*1506 _1316_
*1507 _1317_
*1508 _1318_
*1509 _1319_
*1510 _1320_
*1511 _1321_
*1512 _1322_
*1513 _1323_
*1514 _1324_
*1515 _1325_
*1516 _1326_
*1517 _1327_
*1518 _1328_
*1519 _1329_
*1520 _1330_
*1521 _1331_
*1522 _1332_
*1523 _1333_
*1524 _1334_
*1525 _1335_
*1526 _1336_
*1527 _1337_
*1528 _1338_
*1529 _1339_
*1530 _1340_
*1531 _1341_
*1532 _1342_
*1533 _1343_
*1534 _1344_
*1535 _1345_
*1536 _1346_
*1537 _1347_
*1538 _1348_
*1539 _1349_
*1540 _1350_
*1541 _1351_
*1542 _1352_
*1543 _1353_
*1544 _1354_
*1545 _1355_
*1546 _1356_
*1547 _1357_
*1548 _1358_
*1549 _1359_
*1550 _1360_
*1551 _1361_
*1552 _1362_
*1553 _1363_
*1554 _1364_
*1555 _1365_
*1556 _1366_
*1557 _1367_
*1558 _1368_
*1559 _1369_
*1560 _1370_
*1561 _1371_
*1562 _1372_
*1563 _1373_
*1564 _1374_
*1565 _1375_
*1566 _1376_
*1567 _1377_
*1568 _1378_
*1569 _1379_
*1570 _1380_
*1571 _1381_
*1572 _1382_
*1573 _1383_
*1574 _1384_
*1575 _1385_
*1576 _1386_
*1577 _1387_
*1578 _1388_
*1579 _1389_
*1580 _1390_
*1581 _1391_
*1582 _1392_
*1583 _1393_
*1584 _1394_
*1585 _1395_
*1586 _1396_
*1587 _1397_
*1588 _1398_
*1589 _1399_
*1590 _1400_
*1591 _1401_
*1592 _1402_
*1593 _1403_
*1594 _1404_
*1595 _1405_
*1596 _1406_
*1597 _1407_
*1598 _1408_
*1599 _1409_
*1600 _1410_
*1601 _1411_
*1602 _1412_
*1603 _1413_
*1604 _1414_
*1605 _1415_
*1606 _1416_
*1607 _1417_
*1608 _1418_
*1609 _1419_
*1610 _1420_
*1611 _1421_
*1612 _1422_
*1613 _1423_
*1614 _1424_
*1615 _1425_
*1616 _1426_
*1617 _1427_
*1618 _1428_
*1619 _1429_
*1620 _1430_
*1621 _1431_
*1622 _1432_
*1623 _1433_
*1624 _1434_
*1625 _1435_
*1626 _1436_
*1627 _1437_
*1628 _1438_
*1629 _1439_
*1630 _1440_
*1631 _1441_
*1632 _1442_
*1633 _1443_
*1634 _1444_
*1635 _1445_
*1636 _1446_
*1637 _1447_
*1638 _1448_
*1639 _1449_
*1640 _1450_
*1641 _1451_
*1642 _1452_
*1643 _1453_
*1644 _1454_
*1645 _1455_
*1646 _1456_
*1647 _1457_
*1648 _1458_
*1649 _1459_
*1650 _1460_
*1651 _1461_
*1652 _1462_
*1653 _1463_
*1654 _1464_
*1655 _1465_
*1656 _1466_
*1657 _1467_
*1658 _1468_
*1659 _1469_
*1660 _1470_
*1661 _1471_
*1662 _1472_
*1663 _1473_
*1664 _1474_
*1665 _1475_
*1666 _1476_
*1667 _1477_
*1668 _1478_
*1669 _1479_
*1670 _1480_
*1671 _1481_
*1672 _1482_
*1673 _1483_
*1674 _1484_
*1675 _1485_
*1676 _1486_
*1677 _1487_
*1678 _1488_
*1679 _1489_
*1680 _1490_
*1681 _1491_
*1682 _1492_
*1683 _1493_
*1684 _1494_
*1685 _1495_
*1686 _1496_
*1687 _1497_
*1688 _1498_
*1689 _1499_
*1690 _1500_
*1691 _1501_
*1692 _1502_
*1693 _1503_
*1694 _1504_
*1695 _1505_
*1696 _1506_
*1697 _1507_
*1698 _1508_
*1699 _1509_
*1700 _1510_
*1701 _1511_
*1702 _1512_
*1703 _1513_
*1704 _1514_
*1705 _1515_
*1706 _1516_
*1707 _1517_
*1708 _1518_
*1709 _1519_
*1710 _1520_
*1711 _1521_
*1712 _1522_
*1713 _1523_
*1714 _1524_
*1715 _1525_
*1716 _1526_
*1717 _1527_
*1718 _1528_
*1719 _1529_
*1720 _1530_
*1721 _1531_
*1722 _1532_
*1723 _1533_
*1724 _1534_
*1725 _1535_
*1726 _1536_
*1727 _1537_
*1728 _1538_
*1729 _1539_
*1730 _1540_
*1731 _1541_
*1732 _1542_
*1733 _1543_
*1734 _1544_
*1735 _1545_
*1736 _1546_
*1737 _1547_
*1738 _1548_
*1739 _1549_
*1740 _1550_
*1741 _1551_
*1742 _1552_
*1743 _1553_
*1744 _1554_
*1745 _1555_
*1746 _1556_
*1747 _1557_
*1748 _1558_
*1749 _1559_
*1750 _1560_
*1751 _1561_
*1752 _1562_
*1753 _1563_
*1754 _1564_
*1755 _1565_
*1756 _1566_
*1757 _1567_
*1758 _1568_
*1759 _1569_
*1760 _1570_
*1761 _1571_
*1762 _1572_
*1763 _1573_
*1764 _1574_
*1765 _1575_
*1766 _1576_
*1767 _1577_
*1768 _1578_
*1769 _1579_
*1770 _1580_
*1771 _1581_
*1772 _1582_
*1773 _1583_
*1774 _1584_
*1775 _1585_
*1776 _1586_
*1777 _1587_
*1778 _1588_
*1779 _1589_
*1780 _1590_
*1781 _1591_
*1782 _1592_
*1783 _1593_
*1784 _1594_
*1785 _1595_
*1786 _1596_
*1787 _1597_
*1788 _1598_
*1789 _1599_
*1790 _1600_
*1791 _1601_
*1792 _1602_
*1793 _1603_
*1794 _1604_
*1795 _1605_
*1796 _1606_
*1797 _1607_
*1798 _1608_
*1799 _1609_
*1800 _1610_
*1801 _1611_
*1802 _1612_
*1803 _1613_
*1804 _1614_
*1805 _1615_
*1806 _1616_
*1807 _1617_
*1808 _1618_
*1809 _1619_
*1810 _1620_
*1811 _1621_
*1812 _1622_
*1813 _1623_
*1814 _1624_
*1815 _1625_
*1816 _1626_
*1817 _1627_
*1818 _1628_
*1819 _1629_
*1820 _1630_
*1821 _1631_
*1822 _1632_
*1823 _1633_
*1824 _1634_
*1825 _1635_
*1826 _1636_
*1827 _1637_
*1828 _1638_
*1829 _1639_
*1830 _1640_
*1831 _1641_
*1832 _1642_
*1833 _1643_
*1834 _1644_
*1835 _1645_
*1836 _1646_
*1837 _1647_
*1838 _1648_
*1839 _1649_
*1840 _1650_
*1841 _1651_
*1842 _1652_
*1843 _1653_
*1844 _1654_
*1845 _1655_
*1846 _1656_
*1847 _1657_
*1848 _1658_
*1849 _1659_
*1850 _1660_
*1851 _1661_
*1852 _1662_
*1853 _1663_
*1854 _1664_
*1855 _1665_
*1856 _1666_
*1857 _1667_
*1858 _1668_
*1859 _1669_
*1860 _1670_
*1861 _1671_
*1862 _1672_
*1863 _1673_
*1864 _1674_
*1865 _1675_
*1866 _1676_
*1867 _1677_
*1868 _1678_
*1869 _1679_
*1870 _1680_
*1871 _1681_
*1872 _1682_
*1873 _1683_
*1874 _1684_
*1875 _1685_
*1876 _1686_
*1877 _1687_
*1878 _1688_
*1879 _1689_
*1880 _1690_
*1881 _1691_
*1882 _1692_
*1883 _1693_
*1884 _1694_
*1885 _1695_
*1886 _1696_
*1887 _1697_
*1888 _1698_
*1889 _1699_
*1890 _1700_
*1891 _1701_
*1892 _1702_
*1893 _1703_
*1894 _1704_
*1895 _1705_
*1896 _1706_
*1897 _1707_
*1898 _1708_
*1899 _1709_
*1900 _1710_
*1901 _1711_
*1902 _1712_
*1903 _1713_
*1904 _1714_
*1905 _1715_
*1906 _1716_
*1907 _1717_
*1908 _1718_
*1909 _1719_
*1910 _1720_
*1911 _1721_
*1912 _1722_
*1913 _1723_
*1914 _1724_
*1915 _1725_
*1916 _1726_
*1917 _1727_
*1918 _1728_
*1919 _1729_
*1920 _1730_
*1921 _1731_
*1922 _1732_
*1923 _1733_
*1924 _1734_
*1925 _1735_
*1926 _1736_
*1927 _1737_
*1928 _1738_
*1929 _1739_
*1930 _1740_
*1931 _1741_
*1932 _1742_
*1933 _1743_
*1934 _1744_
*1935 _1745_
*1936 _1746_
*1937 _1747_
*1938 _1748_
*1939 _1749_
*1940 _1750_
*1941 _1751_
*1942 _1752_
*1943 _1753_
*1944 _1754_
*1945 _1755_
*1946 _1756_
*1947 _1757_
*1948 _1758_
*1949 _1759_
*1950 _1760_
*1951 _1761_
*1952 _1762_
*1953 _1763_
*1954 _1764_
*1955 _1765_
*1956 _1766_
*1957 _1767_
*1958 _1768_
*1959 _1769_
*1960 _1770_
*1961 _1771_
*1962 _1772_
*1963 _1773_
*1964 _1774_
*1965 _1775_
*1966 _1776_
*1967 _1777_
*1968 _1778_
*1969 _1779_
*1970 _1780_
*1971 _1781_
*1972 _1782_
*1973 _1783_
*1974 _1784_
*1975 _1785_
*1976 _1786_
*1977 _1787_
*1978 _1788_
*1979 _1789_
*1980 _1790_
*1981 _1791_
*1982 _1792_
*1983 _1793_
*1984 _1794_
*1985 _1795_
*1986 _1796_
*1987 _1797_
*1988 _1798_
*1989 _1799_
*1990 _1800_
*1991 _1801_
*1992 _1802_
*1993 _1803_
*1994 _1804_
*1995 _1805_
*1996 _1806_
*1997 _1807_
*1998 _1808_
*1999 _1809_
*2000 _1810_
*2001 _1811_
*2002 _1812_
*2003 _1813_
*2004 _1814_
*2005 _1815_
*2006 _1816_
*2007 _1817_
*2008 _1818_
*2009 _1819_
*2010 _1820_
*2011 _1821_
*2012 _1822_
*2013 _1823_
*2014 _1824_
*2015 _1825_
*2016 _1826_
*2017 _1827_
*2018 _1828_
*2019 _1829_
*2020 _1830_
*2021 _1831_
*2022 _1832_
*2023 _1833_
*2024 _1834_
*2025 _1835_
*2026 _1836_
*2027 _1837_
*2028 _1838_
*2029 _1839_
*2030 _1840_
*2031 _1841_
*2032 _1842_
*2033 _1843_
*2034 _1844_
*2035 _1845_
*2036 _1846_
*2037 _1847_
*2038 _1848_
*2039 _1849_
*2040 _1850_
*2041 _1851_
*2042 _1852_
*2043 _1853_
*2044 _1854_
*2045 _1855_
*2046 _1856_
*2047 _1857_
*2048 _1858_
*2049 _1859_
*2050 _1860_
*2051 _1861_
*2052 _1862_
*2053 _1863_
*2054 _1864_
*2055 _1865_
*2056 _1866_
*2057 _1867_
*2058 _1868_
*2059 _1869_
*2060 _1870_
*2061 _1871_
*2062 _1872_
*2063 _1873_
*2064 _1874_
*2065 _1875_
*2066 _1876_
*2067 _1877_
*2068 _1878_
*2069 _1879_
*2070 _1880_
*2071 _1881_
*2072 _1882_
*2073 _1883_
*2074 _1884_
*2075 _1885_
*2076 _1886_
*2077 _1887_
*2078 _1888_
*2079 _1889_
*2080 _1890_
*2081 _1891_
*2082 _1892_
*2083 clkbuf_0_clk
*2084 _1902__93
*2085 _1895_
*2086 _1896_
*2087 _1897_
*2088 _1898_
*2089 _1899_
*2090 _1900_
*2091 _1901_
*2092 _1902_
*2093 _1903_
*2094 _1904_
*2095 _1905_
*2096 _1906_
*2097 _1907_
*2098 _1908_
*2099 _1909_
*2100 pcg_out\[0\]\$_SDFF_PN0_
*2101 pcg_out\[1\]\$_SDFF_PN0_
*2102 pcg_out\[2\]\$_SDFF_PN0_
*2103 pcg_out\[3\]\$_SDFF_PN0_
*2104 pcg_out\[4\]\$_SDFF_PN0_
*2105 pcg_out\[5\]\$_SDFF_PN0_
*2106 pcg_out\[6\]\$_SDFF_PN0_
*2107 pcg_out\[7\]\$_SDFF_PN0_
*2108 state\[0\]\$_SDFF_PN0_
*2109 state\[10\]\$_SDFF_PN0_
*2110 state\[11\]\$_SDFF_PN0_
*2111 state\[12\]\$_SDFF_PN1_
*2112 state\[13\]\$_SDFF_PN0_
*2113 state\[14\]\$_SDFF_PN0_
*2114 state\[15\]\$_SDFF_PN0_
*2115 state\[1\]\$_SDFF_PN0_
*2116 state\[2\]\$_SDFF_PN1_
*2117 state\[3\]\$_SDFF_PN0_
*2118 state\[4\]\$_SDFF_PN0_
*2119 state\[5\]\$_SDFF_PN0_
*2120 state\[6\]\$_SDFF_PN0_
*2121 state\[7\]\$_SDFF_PN0_
*2122 state\[8\]\$_SDFF_PN1_
*2123 state\[9\]\$_SDFF_PN0_
*2124 input1
*2125 input2
*2126 input3
*2127 input4
*2128 input5
*2129 input6
*2130 input7
*2131 input8
*2132 input9
*2133 input10
*2134 input11
*2135 input12
*2136 input13
*2137 input14
*2138 input15
*2139 input16
*2140 output17
*2141 output18
*2142 output19
*2143 output20
*2144 output21
*2145 output22
*2146 output23
*2147 output24
*2148 output25
*2149 fanout26
*2150 fanout27
*2151 fanout28
*2152 fanout29
*2153 fanout30
*2154 fanout31
*2155 fanout32
*2156 fanout33
*2157 fanout34
*2158 fanout35
*2159 fanout36
*2160 fanout37
*2161 fanout38
*2162 fanout39
*2163 fanout40
*2164 fanout41
*2165 fanout42
*2166 fanout43
*2167 fanout44
*2168 fanout45
*2169 fanout46
*2170 fanout47
*2171 fanout48
*2172 fanout49
*2173 fanout50
*2174 fanout51
*2175 fanout52
*2176 fanout53
*2177 fanout54
*2178 fanout55
*2179 fanout56
*2180 fanout57
*2181 fanout58
*2182 fanout59
*2183 fanout60
*2184 fanout61
*2185 fanout62
*2186 fanout63
*2187 fanout64
*2188 fanout65
*2189 fanout66
*2190 fanout67
*2191 fanout68
*2192 fanout69
*2193 fanout70
*2194 fanout71
*2195 fanout72
*2196 fanout73
*2197 fanout74
*2198 fanout75
*2199 fanout76
*2200 fanout77
*2201 fanout78
*2202 _1895__79
*2203 _1896__80
*2204 _1897__81
*2205 _1898__82
*2206 _1899__83
*2207 _1900__84
*2208 _1901__85
*2209 _1903__86
*2210 _1904__87
*2211 _1905__88
*2212 _1906__89
*2213 _1907__90
*2214 _1908__91
*2215 _1909__92
*2216 pcg_out\[0\]\$_SDFF_PN0__94
*2217 pcg_out\[1\]\$_SDFF_PN0__95
*2218 pcg_out\[2\]\$_SDFF_PN0__96
*2219 pcg_out\[3\]\$_SDFF_PN0__97
*2220 pcg_out\[4\]\$_SDFF_PN0__98
*2221 pcg_out\[5\]\$_SDFF_PN0__99
*2222 pcg_out\[6\]\$_SDFF_PN0__100
*2223 pcg_out\[7\]\$_SDFF_PN0__101
*2224 state\[0\]\$_SDFF_PN0__102
*2225 state\[10\]\$_SDFF_PN0__103
*2226 state\[11\]\$_SDFF_PN0__104
*2227 state\[12\]\$_SDFF_PN1__105
*2228 state\[13\]\$_SDFF_PN0__106
*2229 state\[14\]\$_SDFF_PN0__107
*2230 state\[15\]\$_SDFF_PN0__108
*2231 state\[1\]\$_SDFF_PN0__109
*2232 state\[2\]\$_SDFF_PN1__110
*2233 state\[3\]\$_SDFF_PN0__111
*2234 state\[4\]\$_SDFF_PN0__112
*2235 state\[5\]\$_SDFF_PN0__113
*2236 state\[6\]\$_SDFF_PN0__114
*2237 state\[7\]\$_SDFF_PN0__115
*2238 state\[8\]\$_SDFF_PN1__116
*2239 state\[9\]\$_SDFF_PN0__117
*2240 clkbuf_2_0__f_clk
*2241 clkbuf_2_1__f_clk
*2242 clkbuf_2_2__f_clk
*2243 clkbuf_2_3__f_clk
*2244 FILLER_0_0
*2245 FILLER_0_7
*2246 FILLER_0_14
*2247 FILLER_0_21
*2248 FILLER_0_28
*2249 FILLER_0_35
*2250 FILLER_0_42
*2251 FILLER_0_49
*2252 FILLER_0_56
*2253 FILLER_0_63
*2254 FILLER_0_70
*2255 FILLER_0_77
*2256 FILLER_0_84
*2257 FILLER_0_91
*2258 FILLER_0_98
*2259 FILLER_0_105
*2260 FILLER_0_112
*2261 FILLER_0_119