*SPEF "ieee 1481-1999"
*DESIGN "tt_um_digital_clock_example"
*DATE "08:53:50 Sunday November 03, 2024"
*VENDOR "The OpenROAD Project"
*PROGRAM "OpenROAD"
*VERSION "v2.0-16649-g40811f37f"
*DESIGN_FLOW "NAME_SCOPE LOCAL" "PIN_CAP NONE"
*DIVIDER /
*DELIMITER :
*BUS_DELIMITER []
*T_UNIT 1 NS
*C_UNIT 1 PF
*R_UNIT 1 OHM
*L_UNIT 1 HENRY

*NAME_MAP
*1 _0000_
*2 _0001_
*3 _0002_
*4 _0003_
*5 _0004_
*6 _0005_
*7 _0006_
*8 _0007_
*9 _0008_
*10 _0009_
*11 _0010_
*12 _0011_
*13 _0012_
*14 _0013_
*15 _0014_
*16 _0015_
*17 _0016_
*18 _0017_
*19 _0018_
*20 _0019_
*21 _0020_
*22 _0021_
*23 _0022_
*24 _0023_
*25 _0024_
*26 _0025_
*27 _0026_
*28 _0027_
*29 _0028_
*30 _0029_
*31 _0030_
*32 _0031_
*33 _0032_
*34 _0033_
*35 _0034_
*36 _0035_
*37 _0036_
*38 _0037_
*39 _0038_
*40 _0039_
*41 _0040_
*42 _0041_
*43 _0042_
*44 _0043_
*45 _0044_
*46 _0045_
*47 _0046_
*48 _0047_
*49 _0048_
*50 _0049_
*51 _0050_
*52 _0051_
*53 _0052_
*54 _0053_
*55 _0054_
*56 _0055_
*57 _0056_
*58 _0057_
*59 _0058_
*60 _0059_
*61 _0060_
*62 _0061_
*63 _0062_
*64 _0063_
*65 _0064_
*66 _0065_
*67 _0066_
*68 _0067_
*69 _0068_
*70 _0069_
*71 _0070_
*72 _0071_
*73 _0072_
*74 _0073_
*75 _0074_
*76 _0075_
*77 _0076_
*78 _0077_
*79 _0078_
*80 _0079_
*81 _0080_
*82 _0081_
*83 _0082_
*84 _0083_
*85 _0084_
*86 _0085_
*87 _0086_
*88 _0087_
*89 _0088_
*90 _0089_
*91 _0090_
*92 _0091_
*93 _0092_
*94 _0093_
*95 _0094_
*96 _0095_
*97 _0096_
*98 _0097_
*99 _0098_
*100 _0099_
*101 _0100_
*102 _0101_
*103 _0102_
*104 _0103_
*105 _0104_
*106 _0105_
*107 _0106_
*108 _0107_
*109 _0108_
*110 _0109_
*111 _0110_
*112 _0111_
*113 _0112_
*114 _0113_
*115 _0114_
*116 _0115_
*117 _0116_
*118 _0117_
*119 _0118_
*120 _0119_
*121 _0120_
*122 _0121_
*123 _0122_
*124 _0123_
*125 _0124_
*126 _0125_
*127 _0126_
*128 _0127_
*129 _0128_
*130 _0129_
*131 _0130_
*132 _0131_
*133 _0132_
*134 _0133_
*135 _0134_
*136 _0135_
*137 _0136_
*138 _0137_
*139 _0138_
*140 _0139_
*141 _0140_
*142 _0141_
*143 _0142_
*144 _0143_
*145 _0144_
*146 _0145_
*147 _0146_
*148 _0147_
*149 _0148_
*150 _0149_
*151 _0150_
*152 _0151_
*153 _0152_
*154 _0153_
*155 _0154_
*156 _0155_
*157 _0156_
*158 _0157_
*159 _0158_
*160 _0159_
*161 _0160_
*162 _0161_
*163 _0162_
*164 _0163_
*165 _0164_
*166 _0165_
*167 _0166_
*168 _0167_
*169 _0168_
*170 _0169_
*171 _0170_
*172 _0171_
*173 _0172_
*174 _0173_
*175 _0174_
*176 _0175_
*177 _0176_
*178 _0177_
*179 _0178_
*180 _0179_
*181 _0180_
*182 _0181_
*183 _0182_
*184 _0183_
*185 _0184_
*186 _0185_
*187 _0186_
*188 _0187_
*189 _0188_
*190 _0189_
*191 _0190_
*192 _0191_
*193 _0192_
*194 _0193_
*195 _0194_
*196 _0195_
*197 _0196_
*198 _0197_
*199 _0198_
*200 _0199_
*201 _0200_
*202 _0201_
*203 _0202_
*204 _0203_
*205 _0204_
*206 _0205_
*207 _0206_
*208 _0207_
*209 _0208_
*210 _0209_
*211 _0210_
*212 _0211_
*213 _0212_
*214 _0213_
*215 _0214_
*216 _0215_
*217 _0216_
*218 _0217_
*219 _0218_
*220 _0219_
*221 _0220_
*222 _0221_
*223 _0222_
*224 _0223_
*225 _0224_
*226 _0225_
*227 _0226_
*228 _0227_
*229 _0228_
*230 _0229_
*231 _0230_
*232 _0231_
*233 _0232_
*234 _0233_
*235 _0234_
*236 _0235_
*237 _0236_
*238 _0237_
*239 _0238_
*240 _0239_
*241 _0240_
*242 _0241_
*243 _0242_
*244 _0243_
*245 _0244_
*246 _0245_
*247 _0246_
*248 _0247_
*249 _0248_
*250 _0249_
*251 _0250_
*252 _0251_
*253 _0252_
*254 _0253_
*255 _0254_
*256 _0255_
*257 _0256_
*258 _0257_
*259 _0258_
*260 _0259_
*261 _0260_
*262 _0261_
*263 _0262_
*264 _0263_
*265 _0264_
*266 _0265_
*267 _0266_
*268 _0267_
*269 _0268_
*270 _0269_
*271 _0270_
*272 _0271_
*273 _0272_
*274 _0273_
*275 _0274_
*276 _0275_
*277 _0276_
*278 _0277_
*279 _0278_
*280 _0279_
*281 _0280_
*282 _0281_
*283 _0282_
*284 _0283_
*285 _0284_
*286 _0285_
*287 _0286_
*288 _0287_
*289 _0288_
*290 _0289_
*291 _0290_
*292 _0291_
*293 _0292_
*294 _0293_
*295 _0294_
*296 _0295_
*297 _0296_
*298 _0297_
*299 _0298_
*300 _0299_
*301 _0300_
*302 _0301_
*303 _0302_
*304 _0303_
*305 _0304_
*306 _0305_
*307 _0306_
*308 _0307_
*309 _0308_
*310 _0309_
*311 _0310_
*312 _0311_
*313 _0312_
*314 _0313_
*315 _0314_
*316 _0315_
*317 _0316_
*318 _0317_
*319 _0318_
*320 _0319_
*321 _0320_
*322 _0321_
*323 _0322_
*324 _0323_
*325 _0324_
*326 _0325_
*327 _0326_
*328 _0327_
*329 _0328_
*330 _0329_
*331 _0330_
*332 _0331_
*333 _0332_
*334 _0333_
*335 _0334_
*336 _0335_
*337 _0336_
*338 _0337_
*339 _0338_
*340 _0339_
*341 _0340_
*342 _0341_
*343 _0342_
*344 _0343_
*345 _0344_
*346 _0345_
*347 _0346_
*348 _0347_
*349 _0348_
*350 _0349_
*351 _0350_
*352 _0351_
*353 _0352_
*354 _0353_
*355 _0354_
*356 _0355_
*357 _0356_
*358 _0357_
*359 _0358_
*360 _0359_
*361 _0360_
*362 _0361_
*363 _0362_
*364 _0363_
*365 _0364_
*366 _0365_
*367 _0366_
*368 _0367_
*369 _0368_
*370 _0369_
*371 _0370_
*372 _0371_
*373 _0372_
*374 _0373_
*375 _0374_
*376 _0375_
*377 _0376_
*378 _0377_
*379 _0378_
*380 _0379_
*381 _0380_
*382 _0381_
*383 _0382_
*384 _0383_
*385 _0384_
*386 _0385_
*387 _0386_
*388 _0387_
*389 _0388_
*390 _0389_
*391 _0390_
*392 _0391_
*393 _0392_
*394 _0393_
*395 _0394_
*396 _0395_
*397 _0396_
*398 _0397_
*399 _0398_
*400 _0399_
*401 _0400_
*402 _0401_
*403 _0402_
*404 _0403_
*405 _0404_
*406 _0405_
*407 _0406_
*408 _0407_
*409 _0408_
*410 _0409_
*411 _0410_
*412 _0411_
*413 _0412_
*414 _0413_
*415 _0414_
*416 _0415_
*417 _0416_
*418 _0417_
*419 _0418_
*420 _0419_
*421 _0420_
*422 _0421_
*423 _0422_
*424 _0423_
*425 _0424_
*426 _0425_
*427 _0426_
*428 _0427_
*429 _0428_
*430 _0429_
*431 _0430_
*432 _0431_
*433 _0432_
*434 _0433_
*435 _0434_
*436 _0435_
*437 _0436_
*438 _0437_
*439 _0438_
*440 _0439_
*441 _0440_
*442 _0441_
*443 _0442_
*444 _0443_
*445 _0444_
*446 _0445_
*447 _0446_
*448 _0447_
*449 _0448_
*450 _0449_
*451 _0450_
*452 _0451_
*453 _0452_
*454 _0453_
*455 _0454_
*456 _0455_
*457 _0456_
*458 _0457_
*459 _0458_
*460 _0459_
*461 _0460_
*462 _0461_
*463 _0462_
*464 _0463_
*465 _0464_
*466 _0465_
*467 _0466_
*468 _0467_
*469 _0468_
*470 _0469_
*471 _0470_
*472 _0471_
*473 _0472_
*474 _0473_
*475 _0474_
*476 _0475_
*477 _0476_
*478 _0477_
*479 _0478_
*480 _0479_
*481 _0480_
*482 _0481_
*483 _0482_
*484 _0483_
*485 _0484_
*486 _0485_
*487 _0486_
*488 _0487_
*489 _0488_
*490 _0489_
*491 _0490_
*492 _0491_
*493 _0492_
*494 _0493_
*495 _0494_
*496 _0495_
*497 _0496_
*498 _0497_
*499 _0498_
*500 _0499_
*501 _0500_
*502 _0501_
*503 _0502_
*504 _0503_
*505 _0504_
*506 _0505_
*507 _0506_
*508 _0507_
*509 _0508_
*510 _0509_
*511 _0510_
*512 _0511_
*513 _0512_
*514 _0513_
*515 _0514_
*516 _0515_
*517 _0516_
*518 _0517_
*519 _0518_
*520 _0519_
*521 _0520_
*522 _0521_
*523 _0522_
*524 _0523_
*525 _0524_
*526 _0525_
*527 _0526_
*528 _0527_
*529 _0528_
*530 _0529_
*531 _0530_
*532 _0531_
*533 _0532_
*534 _0533_
*535 _0534_
*536 _0535_
*537 _0536_
*538 _0537_
*539 _0538_
*540 _0539_
*541 _0540_
*542 _0541_
*543 _0542_
*544 _0543_
*545 _0544_
*546 _0545_
*547 _0546_
*548 _0547_
*549 _0548_
*550 _0549_
*551 _0550_
*552 _0551_
*553 _0552_
*554 _0553_
*555 _0554_
*556 _0555_
*557 _0556_
*558 _0557_
*559 _0558_
*560 _0559_
*561 _0560_
*562 _0561_
*563 _0562_
*564 _0563_
*565 _0564_
*566 _0565_
*567 _0566_
*568 _0567_
*569 _0568_
*570 _0569_
*571 _0570_
*572 _0571_
*573 _0572_
*574 _0573_
*575 _0574_
*576 _0575_
*577 _0576_
*578 _0577_
*579 _0578_
*580 _0579_
*581 _0580_
*582 _0581_
*583 _0582_
*584 _0583_
*585 _0584_
*586 _0585_
*587 _0586_
*588 _0587_
*589 _0588_
*590 _0589_
*591 _0590_
*592 _0591_
*593 _0592_
*594 _0593_
*595 _0594_
*596 _0595_
*597 _0596_
*598 _0597_
*599 _0598_
*600 _0599_
*601 _0600_
*602 _0601_
*603 _0602_
*604 _0603_
*605 _0604_
*606 _0605_
*607 _0606_
*608 _0607_
*609 _0608_
*610 _0609_
*611 _0610_
*612 _0611_
*613 _0612_
*614 _0613_
*615 _0614_
*616 _0615_
*617 _0616_
*618 _0617_
*619 _0618_
*620 _0619_
*621 _0620_
*622 _0621_
*623 _0622_
*624 _0623_
*625 _0624_
*626 _0625_
*627 _0626_
*628 _0627_
*629 _0628_
*630 _0629_
*631 _0630_
*632 _0631_
*633 _0632_
*634 _0633_
*635 _0634_
*636 _0635_
*637 _0636_
*638 _0637_
*639 _0638_
*640 _0639_
*641 _0640_
*642 _0641_
*643 _0642_
*644 _0643_
*645 _0644_
*646 _0645_
*647 _0646_
*648 _0647_
*649 _0648_
*650 _0649_
*651 _0650_
*652 _0651_
*653 _0652_
*654 _0653_
*655 _0654_
*656 _0655_
*657 _0656_
*658 _0657_
*659 _0658_
*660 _0659_
*661 _0660_
*662 _0661_
*663 _0662_
*664 _0663_
*665 _0664_
*666 _0665_
*667 _0666_
*668 _0667_
*669 _0668_
*670 _0669_
*671 _0670_
*672 _0671_
*673 _0672_
*674 _0673_
*675 _0674_
*676 _0675_
*677 _0676_
*678 _0677_
*679 _0678_
*680 _0679_
*681 _0680_
*682 _0681_
*683 _0682_
*684 _0683_
*685 _0684_
*686 _0685_
*687 _0686_
*688 _0687_
*689 _0688_
*690 _0689_
*691 _0690_
*692 _0691_
*693 _0692_
*694 _0693_
*695 _0694_
*696 _0695_
*697 _0696_
*698 _0697_
*699 _0698_
*700 _0699_
*701 _0700_
*702 _0701_
*703 _0702_
*704 _0703_
*705 _0704_
*706 _0705_
*707 _0706_
*708 _0707_
*709 _0708_
*710 _0709_
*711 clknet_0_clk
*712 net60
*713 clk
*714 desk_clock\.clk_gen_inst\.i_refclk
*715 desk_clock\.clk_gen_inst\.refclk_div\[0\]
*716 desk_clock\.clk_gen_inst\.refclk_div\[10\]
*717 desk_clock\.clk_gen_inst\.refclk_div\[11\]
*718 desk_clock\.clk_gen_inst\.refclk_div\[12\]
*719 desk_clock\.clk_gen_inst\.refclk_div\[13\]
*720 desk_clock\.clk_gen_inst\.refclk_div\[14\]
*721 desk_clock\.clk_gen_inst\.refclk_div\[1\]
*722 desk_clock\.clk_gen_inst\.refclk_div\[2\]
*723 desk_clock\.clk_gen_inst\.refclk_div\[3\]
*724 desk_clock\.clk_gen_inst\.refclk_div\[4\]
*725 desk_clock\.clk_gen_inst\.refclk_div\[5\]
*726 desk_clock\.clk_gen_inst\.refclk_div\[6\]
*727 desk_clock\.clk_gen_inst\.refclk_div\[7\]
*728 desk_clock\.clk_gen_inst\.refclk_div\[8\]
*729 desk_clock\.clk_gen_inst\.refclk_div\[9\]
*730 desk_clock\.clk_gen_inst\.stb_gen_1hz\.sig_hold
*731 desk_clock\.clk_gen_inst\.stb_gen_debounce_clk\.sig_hold
*732 desk_clock\.clk_gen_inst\.stb_gen_fast_clk\.sig_hold
*733 desk_clock\.clk_gen_inst\.stb_gen_refclk\.sig_hold
*734 desk_clock\.clk_gen_inst\.stb_gen_slow_clk\.sig_hold
*735 desk_clock\.clk_hours\[0\]
*736 desk_clock\.clk_hours\[1\]
*737 desk_clock\.clk_hours\[2\]
*738 desk_clock\.clk_hours\[3\]
*739 desk_clock\.clk_hours\[4\]
*740 desk_clock\.clk_minutes\[0\]
*741 desk_clock\.clk_minutes\[1\]
*742 desk_clock\.clk_minutes\[2\]
*743 desk_clock\.clk_minutes\[3\]
*744 desk_clock\.clk_minutes\[4\]
*745 desk_clock\.clk_minutes\[5\]
*746 desk_clock\.clk_seconds\[0\]
*747 desk_clock\.clk_seconds\[1\]
*748 desk_clock\.clk_seconds\[2\]
*749 desk_clock\.clk_seconds\[3\]
*750 desk_clock\.clk_seconds\[4\]
*751 desk_clock\.clk_seconds\[5\]
*752 desk_clock\.display_control_inst\.display_update
*753 desk_clock\.display_control_inst\.o_write_config
*754 desk_clock\.display_inst\.clock_to_bcd_conv_inst\.hours_int\[0\]
*755 desk_clock\.display_inst\.clock_to_bcd_conv_inst\.hours_int\[1\]
*756 desk_clock\.display_inst\.clock_to_bcd_conv_inst\.hours_int\[2\]
*757 desk_clock\.display_inst\.clock_to_bcd_conv_inst\.hours_int\[3\]
*758 desk_clock\.display_inst\.clock_to_bcd_conv_inst\.hours_int\[4\]
*759 desk_clock\.display_inst\.clock_to_bcd_conv_inst\.i_minutes\[0\]
*760 desk_clock\.display_inst\.clock_to_bcd_conv_inst\.i_minutes\[1\]
*761 desk_clock\.display_inst\.clock_to_bcd_conv_inst\.i_minutes\[2\]
*762 desk_clock\.display_inst\.clock_to_bcd_conv_inst\.i_minutes\[3\]
*763 desk_clock\.display_inst\.clock_to_bcd_conv_inst\.i_minutes\[4\]
*764 desk_clock\.display_inst\.clock_to_bcd_conv_inst\.i_minutes\[5\]
*765 desk_clock\.display_inst\.clock_to_bcd_conv_inst\.i_seconds\[0\]
*766 desk_clock\.display_inst\.clock_to_bcd_conv_inst\.i_seconds\[1\]
*767 desk_clock\.display_inst\.clock_to_bcd_conv_inst\.i_seconds\[2\]
*768 desk_clock\.display_inst\.clock_to_bcd_conv_inst\.i_seconds\[3\]
*769 desk_clock\.display_inst\.clock_to_bcd_conv_inst\.i_seconds\[4\]
*770 desk_clock\.display_inst\.clock_to_bcd_conv_inst\.i_seconds\[5\]
*771 desk_clock\.display_inst\.disp_driver\.data_reg\[0\]
*772 desk_clock\.display_inst\.disp_driver\.data_reg\[10\]
*773 desk_clock\.display_inst\.disp_driver\.data_reg\[11\]
*774 desk_clock\.display_inst\.disp_driver\.data_reg\[12\]
*775 desk_clock\.display_inst\.disp_driver\.data_reg\[13\]
*776 desk_clock\.display_inst\.disp_driver\.data_reg\[14\]
*777 desk_clock\.display_inst\.disp_driver\.data_reg\[15\]
*778 desk_clock\.display_inst\.disp_driver\.data_reg\[1\]
*779 desk_clock\.display_inst\.disp_driver\.data_reg\[2\]
*780 desk_clock\.display_inst\.disp_driver\.data_reg\[3\]
*781 desk_clock\.display_inst\.disp_driver\.data_reg\[4\]
*782 desk_clock\.display_inst\.disp_driver\.data_reg\[5\]
*783 desk_clock\.display_inst\.disp_driver\.data_reg\[6\]
*784 desk_clock\.display_inst\.disp_driver\.data_reg\[7\]
*785 desk_clock\.display_inst\.disp_driver\.data_reg\[8\]
*786 desk_clock\.display_inst\.disp_driver\.data_reg\[9\]
*787 desk_clock\.display_inst\.disp_driver\.i_addr\[0\]
*788 desk_clock\.display_inst\.disp_driver\.i_addr\[1\]
*789 desk_clock\.display_inst\.disp_driver\.i_addr\[2\]
*790 desk_clock\.display_inst\.disp_driver\.i_addr\[3\]
*791 desk_clock\.display_inst\.disp_driver\.i_data\[0\]
*792 desk_clock\.display_inst\.disp_driver\.i_data\[1\]
*793 desk_clock\.display_inst\.disp_driver\.i_data\[2\]
*794 desk_clock\.display_inst\.disp_driver\.i_data\[3\]
*795 desk_clock\.display_inst\.disp_driver\.i_data\[4\]
*796 desk_clock\.display_inst\.disp_driver\.i_data\[7\]
*797 desk_clock\.display_inst\.disp_driver\.o_serial_clk
*798 desk_clock\.display_inst\.disp_driver\.o_serial_load
*799 desk_clock\.display_inst\.disp_driver\.transfer_state\[0\]
*800 desk_clock\.display_inst\.disp_driver\.transfer_state\[1\]
*801 desk_clock\.display_inst\.disp_driver\.transfer_state\[2\]
*802 desk_clock\.display_inst\.disp_driver\.transfer_state\[3\]
*803 desk_clock\.display_inst\.disp_driver\.transfer_state\[4\]
*804 desk_clock\.display_inst\.display_settings\.transfer_state\[0\]
*805 desk_clock\.display_inst\.display_settings\.transfer_state\[1\]
*806 desk_clock\.display_inst\.display_settings\.transfer_state\[2\]
*807 desk_clock\.display_inst\.display_settings\.transfer_state\[3\]
*808 desk_clock\.display_inst\.display_settings\.write_config
*809 desk_clock\.display_inst\.state\[0\]
*810 desk_clock\.display_inst\.state\[1\]
*811 desk_clock\.display_inst\.state\[2\]
*812 desk_clock\.display_inst\.state\[3\]
*813 desk_clock\.input_debounce\.fast_set_reg\[0\]
*814 desk_clock\.input_debounce\.fast_set_reg\[1\]
*815 desk_clock\.input_debounce\.fast_set_reg\[2\]
*816 desk_clock\.input_debounce\.fast_set_reg\[3\]
*817 desk_clock\.input_debounce\.fast_set_reg\[4\]
*818 desk_clock\.input_debounce\.fast_set_reg\[5\]
*819 desk_clock\.input_debounce\.set_hours_reg\[0\]
*820 desk_clock\.input_debounce\.set_hours_reg\[1\]
*821 desk_clock\.input_debounce\.set_hours_reg\[2\]
*822 desk_clock\.input_debounce\.set_hours_reg\[3\]
*823 desk_clock\.input_debounce\.set_hours_reg\[4\]
*824 desk_clock\.input_debounce\.set_hours_reg\[5\]
*825 desk_clock\.input_debounce\.set_minutes_reg\[0\]
*826 desk_clock\.input_debounce\.set_minutes_reg\[1\]
*827 desk_clock\.input_debounce\.set_minutes_reg\[2\]
*828 desk_clock\.input_debounce\.set_minutes_reg\[3\]
*829 desk_clock\.input_debounce\.set_minutes_reg\[4\]
*830 desk_clock\.input_debounce\.set_minutes_reg\[5\]
*831 desk_clock\.refclk_sync_inst\.refclk_sync_reg\[0\]
*832 ena
*833 rst_n
*834 ui_in[0]
*835 ui_in[1]
*836 ui_in[2]
*837 ui_in[3]
*838 ui_in[4]
*839 ui_in[5]
*840 ui_in[6]
*841 ui_in[7]
*842 uio_in[0]
*843 uio_in[1]
*844 uio_in[2]
*845 uio_in[3]
*846 uio_in[4]
*847 uio_in[5]
*848 uio_in[6]
*849 uio_in[7]
*850 uio_oe[0]
*851 uio_oe[1]
*852 uio_oe[2]
*853 uio_oe[3]
*854 uio_oe[4]
*855 uio_oe[5]
*856 uio_oe[6]
*857 uio_oe[7]
*858 uio_out[0]
*859 uio_out[1]
*860 uio_out[2]
*861 uio_out[3]
*862 uio_out[4]
*863 uio_out[5]
*864 uio_out[6]
*865 uio_out[7]
*866 uo_out[0]
*867 uo_out[1]
*868 uo_out[2]
*869 uo_out[3]
*870 uo_out[4]
*871 uo_out[5]
*872 uo_out[6]
*873 uo_out[7]
*876 net1
*877 net2
*878 net3
*879 net4
*880 net5
*881 net6
*882 net7
*883 net8
*884 net9
*885 net10
*886 net11
*887 net12
*888 net13
*889 net14
*890 net15
*891 net16
*892 net17
*893 net18
*894 net19
*895 net20
*896 net21
*897 net22
*898 net23
*899 net24
*900 net25
*901 net26
*902 net27
*903 net28
*904 net29
*905 net30
*906 net31
*907 net32
*908 net33
*909 net34
*910 net35
*911 net36
*912 net37
*913 net38
*914 net39
*915 net40
*916 net41
*917 net42
*918 net43
*919 net44
*920 net45
*921 net46
*922 net47
*923 net48
*924 net49
*925 net50
*926 net51
*927 net52
*928 net53
*929 net54
*930 net55
*931 net56
*932 net57
*933 net58
*934 net59
*935 net61
*936 net62
*937 net63
*938 net64
*939 net65
*940 net66
*941 net67
*942 net68
*943 net69
*944 net70
*945 net71
*946 net72
*947 net73
*948 net74
*949 net75
*950 net76
*951 net77
*952 net78
*953 net79
*954 net80
*955 net81
*956 net82
*957 net83
*958 net84
*959 net85
*960 net86
*961 net87
*962 net88
*963 net89
*964 net90
*965 net91
*966 net92
*967 net93
*968 net94
*969 net95
*970 net96
*971 net97
*972 net98
*973 net99
*974 net100
*975 net101
*976 net102
*977 net103
*978 net104
*979 net105
*980 net106
*981 net107
*982 net108
*983 net109
*984 net110
*985 net111
*986 net112
*987 net113
*988 net114
*989 net115
*990 net116
*991 net117
*992 net118
*993 net119
*994 net120
*995 net121
*996 net122
*997 net123
*998 net124
*999 net125
*1000 net126
*1001 net127
*1002 net128
*1003 net129
*1004 net130
*1005 net131
*1006 net132
*1007 net133
*1008 net134
*1009 net135
*1010 net136
*1011 net137
*1012 net138
*1013 net139
*1014 net140
*1015 net141
*1016 net142
*1017 net143
*1018 net144
*1019 net145
*1020 net146
*1021 net147
*1022 net148
*1023 net149
*1024 net150
*1025 net151
*1026 net152
*1027 net153
*1028 net154
*1029 net155
*1030 net156
*1031 net157
*1032 net158
*1033 net159
*1034 net160
*1035 net161
*1036 net162
*1037 net163
*1038 net164
*1039 net165
*1040 net166
*1041 net167
*1042 net168
*1043 net169
*1044 net170
*1045 net171
*1046 net172
*1047 net173
*1048 net174
*1049 net175
*1050 net176
*1051 net177
*1052 net178
*1053 clknet_4_0_0_clk
*1054 clknet_4_1_0_clk
*1055 clknet_4_2_0_clk
*1056 clknet_4_3_0_clk
*1057 clknet_4_4_0_clk
*1058 clknet_4_5_0_clk
*1059 clknet_4_6_0_clk
*1060 clknet_4_7_0_clk
*1061 clknet_4_8_0_clk
*1062 clknet_4_9_0_clk
*1063 clknet_4_10_0_clk
*1064 clknet_4_11_0_clk
*1065 clknet_4_12_0_clk
*1066 clknet_4_13_0_clk
*1067 clknet_4_14_0_clk
*1068 clknet_4_15_0_clk
*1069 clknet_5_0__leaf_clk
*1070 clknet_5_1__leaf_clk
*1071 clknet_5_2__leaf_clk
*1072 clknet_5_3__leaf_clk
*1073 clknet_5_4__leaf_clk
*1074 clknet_5_5__leaf_clk
*1075 clknet_5_6__leaf_clk
*1076 clknet_5_7__leaf_clk
*1077 clknet_5_8__leaf_clk
*1078 clknet_5_9__leaf_clk
*1079 clknet_5_10__leaf_clk
*1080 clknet_5_11__leaf_clk
*1081 clknet_5_12__leaf_clk
*1082 clknet_5_13__leaf_clk
*1083 clknet_5_14__leaf_clk
*1084 clknet_5_15__leaf_clk
*1085 clknet_5_16__leaf_clk
*1086 clknet_5_17__leaf_clk
*1087 clknet_5_18__leaf_clk
*1088 clknet_5_19__leaf_clk
*1089 clknet_5_20__leaf_clk
*1090 clknet_5_21__leaf_clk
*1091 clknet_5_22__leaf_clk
*1092 clknet_5_23__leaf_clk
*1093 clknet_5_24__leaf_clk
*1094 clknet_5_25__leaf_clk
*1095 clknet_5_26__leaf_clk
*1096 clknet_5_27__leaf_clk
*1097 clknet_5_28__leaf_clk
*1098 clknet_5_29__leaf_clk
*1099 clknet_5_30__leaf_clk
*1100 clknet_5_31__leaf_clk
*1101 _0712_
*1102 _0713_
*1103 _0714_
*1104 _0715_
*1105 _0716_
*1106 _0717_
*1107 _0718_
*1108 _0719_
*1109 _0720_
*1110 _0721_
*1111 _0722_
*1112 _0723_
*1113 _0724_
*1114 _0725_
*1115 _0726_
*1116 _0727_
*1117 _0728_
*1118 _0729_
*1119 _0730_
*1120 _0731_
*1121 _0732_
*1122 _0733_
*1123 _0734_
*1124 _0735_
*1125 _0736_
*1126 _0737_
*1127 _0738_
*1128 _0739_
*1129 _0740_
*1130 _0741_
*1131 _0742_
*1132 _0743_
*1133 _0744_
*1134 _0745_
*1135 _0746_
*1136 _0747_
*1137 _0748_
*1138 _0749_
*1139 _0750_
*1140 _0751_
*1141 _0752_
*1142 _0753_
*1143 _0754_
*1144 _0755_
*1145 _0756_
*1146 _0757_
*1147 _0758_
*1148 _0759_
*1149 _0760_
*1150 _0761_
*1151 _0762_
*1152 _0763_
*1153 _0764_
*1154 _0765_
*1155 _0766_
*1156 _0767_
*1157 _0768_
*1158 _0769_
*1159 _0770_
*1160 _0771_
*1161 _0772_
*1162 _0773_
*1163 _0774_
*1164 _0775_
*1165 _0776_
*1166 _0777_
*1167 _0778_
*1168 _0779_
*1169 _0780_
*1170 _0781_
*1171 _0782_
*1172 _0783_
*1173 _0784_
*1174 _0785_
*1175 _0786_
*1176 _0787_
*1177 _0788_
*1178 _0789_
*1179 _0790_
*1180 _0791_
*1181 _0792_
*1182 _0793_
*1183 _0794_
*1184 _0795_
*1185 _0796_
*1186 _0797_
*1187 _0798_
*1188 _0799_
*1189 _0800_
*1190 _0801_
*1191 _0802_
*1192 _0803_
*1193 _0804_
*1194 _0805_
*1195 _0806_
*1196 _0807_
*1197 _0808_
*1198 _0809_
*1199 _0810_
*1200 _0811_
*1201 _0812_
*1202 _0813_
*1203 _0814_
*1204 _0815_
*1205 _0816_
*1206 _0817_
*1207 _0818_
*1208 _0819_
*1209 _0820_
*1210 _0821_
*1211 _0822_
*1212 _0823_
*1213 _0824_
*1214 _0825_
*1215 _0826_
*1216 _0827_
*1217 _0828_
*1218 _0829_
*1219 _0830_
*1220 _0831_
*1221 _0832_
*1222 _0833_
*1223 _0834_
*1224 _0835_
*1225 _0836_
*1226 _0837_
*1227 _0838_
*1228 _0839_
*1229 _0840_
*1230 _0841_
*1231 _0842_
*1232 _0843_
*1233 _0844_
*1234 _0845_
*1235 _0846_
*1236 _0847_
*1237 _0848_
*1238 _0849_
*1239 _0850_
*1240 _0851_
*1241 _0852_
*1242 _0853_
*1243 _0854_
*1244 _0855_
*1245 _0856_
*1246 _0857_
*1247 _0858_
*1248 _0859_
*1249 _0860_
*1250 _0861_
*1251 _0862_
*1252 _0863_
*1253 _0864_
*1254 _0865_
*1255 _0866_
*1256 _0867_
*1257 _0868_
*1258 _0869_
*1259 _0870_
*1260 _0871_
*1261 _0872_
*1262 _0873_
*1263 _0874_
*1264 _0875_
*1265 _0876_
*1266 _0877_
*1267 _0878_
*1268 _0879_
*1269 _0880_
*1270 _0881_
*1271 _0882_
*1272 _0883_
*1273 _0884_
*1274 _0885_
*1275 _0886_
*1276 _0887_
*1277 _0888_
*1278 _0889_
*1279 _0890_
*1280 _0891_
*1281 _0892_
*1282 _0893_
*1283 _0894_
*1284 _0895_
*1285 _0896_
*1286 _0897_
*1287 _0898_
*1288 _0899_
*1289 _0900_
*1290 _0901_
*1291 _0902_
*1292 _0903_
*1293 _0904_
*1294 _0905_
*1295 _0906_
*1296 _0907_
*1297 _0908_
*1298 _0909_
*1299 _0910_
*1300 _0911_
*1301 _0912_
*1302 _0913_
*1303 _0914_
*1304 _0915_
*1305 _0916_
*1306 _0917_
*1307 _0918_
*1308 _0919_
*1309 _0920_
*1310 _0921_
*1311 _0922_
*1312 _0923_
*1313 _0924_
*1314 _0925_
*1315 _0926_
*1316 _0927_
*1317 _0928_
*1318 _0929_
*1319 _0930_
*1320 _0931_
*1321 _0932_
*1322 _0933_
*1323 _0934_
*1324 _0935_
*1325 _0936_
*1326 _0937_
*1327 _0938_
*1328 _0939_
*1329 _0940_
*1330 _0941_
*1331 _0942_
*1332 _0943_
*1333 _0944_
*1334 _0945_
*1335 _0946_
*1336 _0947_
*1337 _0948_
*1338 _0949_
*1339 _0950_
*1340 _0951_
*1341 _0952_
*1342 _0953_
*1343 _0954_
*1344 _0955_
*1345 _0956_
*1346 _0957_
*1347 _0958_
*1348 _0959_
*1349 _0960_
*1350 _0961_
*1351 _0962_
*1352 _0963_
*1353 _0964_
*1354 _0965_
*1355 _0966_
*1356 _0967_
*1357 _0968_
*1358 _0969_
*1359 _0970_
*1360 _0971_
*1361 _0972_
*1362 _0973_
*1363 _0974_
*1364 _0975_
*1365 _0976_
*1366 _0977_
*1367 _0978_
*1368 _0979_
*1369 _0980_
*1370 _0981_
*1371 _0982_
*1372 _0983_
*1373 _0984_
*1374 _0985_
*1375 _0986_
*1376 _0987_
*1377 _0988_
*1378 _0989_
*1379 _0990_
*1380 _0991_
*1381 _0992_
*1382 _0993_
*1383 _0994_
*1384 _0995_
*1385 _0996_
*1386 _0997_
*1387 _0998_
*1388 _0999_
*1389 _1000_
*1390 _1001_
*1391 _1002_
*1392 _1003_
*1393 _1004_
*1394 _1005_
*1395 _1006_
*1396 _1007_
*1397 _1008_
*1398 _1009_
*1399 _1010_
*1400 _1011_
*1401 _1012_
*1402 _1013_
*1403 _1014_
*1404 _1015_
*1405 _1016_
*1406 _1017_
*1407 _1018_
*1408 _1019_
*1409 _1020_
*1410 _1021_
*1411 _1022_
*1412 _1023_
*1413 _1024_
*1414 _1025_
*1415 _1026_
*1416 _1027_
*1417 _1028_
*1418 _1029_
*1419 _1030_
*1420 _1031_
*1421 _1032_
*1422 _1033_
*1423 _1034_
*1424 _1035_
*1425 _1036_
*1426 _1037_
*1427 _1038_
*1428 _1039_
*1429 _1040_
*1430 _1041_
*1431 _1042_
*1432 _1043_
*1433 _1044_
*1434 _1045_
*1435 _1046_
*1436 _1047_
*1437 _1048_
*1438 _1049_
*1439 _1050_
*1440 _1051_
*1441 _1052_
*1442 _1053_
*1443 _1054_
*1444 _1055_
*1445 _1056_
*1446 _1057_
*1447 _1058_
*1448 _1059_
*1449 _1060_
*1450 _1061_
*1451 _1062_
*1452 _1063_
*1453 _1064_
*1454 _1065_
*1455 _1066_
*1456 _1067_
*1457 _1068_
*1458 _1069_
*1459 _1070_
*1460 _1071_
*1461 _1072_
*1462 _1073_
*1463 _1074_
*1464 _1075_
*1465 _1076_
*1466 _1077_
*1467 _1078_
*1468 _1079_
*1469 _1080_
*1470 _1081_
*1471 _1082_
*1472 _1083_
*1473 _1084_
*1474 _1085_
*1475 _1086_
*1476 _1087_
*1477 _1088_
*1478 _1089_
*1479 _1090_
*1480 _1091_
*1481 _1092_
*1482 _1093_
*1483 _1094_
*1484 _1095_
*1485 _1096_
*1486 _1097_
*1487 _1098_
*1488 _1099_
*1489 _1100_
*1490 _1101_
*1491 _1102_
*1492 _1103_
*1493 _1104_
*1494 _1105_
*1495 _1106_
*1496 _1107_
*1497 _1108_
*1498 _1109_
*1499 _1110_
*1500 _1111_
*1501 _1112_
*1502 _1113_
*1503 _1114_
*1504 _1115_
*1505 _1116_
*1506 _1117_
*1507 _1118_
*1508 _1119_
*1509 _1120_
*1510 _1121_
*1511 _1122_
*1512 _1123_
*1513 _1124_
*1514 _1125_
*1515 _1126_
*1516 _1127_
*1517 _1128_
*1518 _1129_
*1519 _1130_
*1520 _1131_
*1521 _1132_
*1522 _1133_
*1523 _1134_
*1524 _1135_
*1525 _1136_
*1526 _1137_
*1527 _1138_
*1528 _1139_
*1529 _1140_
*1530 _1141_
*1531 _1142_
*1532 _1143_
*1533 _1144_
*1534 _1145_
*1535 _1146_
*1536 _1147_
*1537 _1148_
*1538 _1149_
*1539 _1150_
*1540 _1151_
*1541 _1152_
*1542 _1153_
*1543 _1154_
*1544 _1155_
*1545 _1156_
*1546 _1157_
*1547 _1158_
*1548 _1159_
*1549 _1160_
*1550 _1161_
*1551 _1162_
*1552 _1163_
*1553 _1164_
*1554 _1165_
*1555 _1166_
*1556 _1167_
*1557 _1168_
*1558 _1169_
*1559 _1170_
*1560 _1171_
*1561 _1172_
*1562 _1173_
*1563 _1174_
*1564 _1175_
*1565 _1176_
*1566 _1177_
*1567 _1178_
*1568 _1179_
*1569 _1180_
*1570 _1181_
*1571 _1182_
*1572 _1183_
*1573 _1184_
*1574 _1185_
*1575 _1186_
*1576 _1187_
*1577 _1188_
*1578 _1189_
*1579 _1190_
*1580 _1191_
*1581 _1192_
*1582 _1193_
*1583 _1194_
*1584 _1195_
*1585 _1196_
*1586 _1197_
*1587 _1198_
*1588 _1199_
*1589 _1200_
*1590 _1201_
*1591 _1202_
*1592 _1203_
*1593 _1204_
*1594 _1205_
*1595 _1206_
*1596 _1207_
*1597 _1208_
*1598 _1209_
*1599 _1210_
*1600 _1211_
*1601 _1212_
*1602 _1213_
*1603 _1214_
*1604 _1215_
*1605 _1216_
*1606 _1217_
*1607 _1218_
*1608 _1219_
*1609 _1220_
*1610 _1221_
*1611 _1222_
*1612 _1223_
*1613 _1224_
*1614 _1225_
*1615 _1226_
*1616 _1227_
*1617 _1228_
*1618 _1229_
*1619 _1230_
*1620 _1231_
*1621 _1232_
*1622 _1233_
*1623 _1234_
*1624 _1235_
*1625 _1236_
*1626 _1237_
*1627 _1238_
*1628 _1239_
*1629 _1240_
*1630 _1241_
*1631 _1242_
*1632 _1243_
*1633 _1244_
*1634 _1245_
*1635 _1246_
*1636 _1247_
*1637 _1248_
*1638 _1249_
*1639 _1250_
*1640 _1251_
*1641 _1252_
*1642 _1253_
*1643 _1254_
*1644 _1255_
*1645 _1256_
*1646 _1257_
*1647 _1258_
*1648 _1259_
*1649 _1260_
*1650 _1261_
*1651 _1262_
*1652 _1263_
*1653 _1264_
*1654 _1265_
*1655 _1266_
*1656 _1267_
*1657 _1268_
*1658 _1269_
*1659 _1270_
*1660 _1271_
*1661 _1272_
*1662 _1273_
*1663 _1274_
*1664 _1275_
*1665 _1276_
*1666 _1277_
*1667 _1278_
*1668 _1279_
*1669 _1280_
*1670 _1281_
*1671 _1282_
*1672 _1283_
*1673 _1284_
*1674 _1285_
*1675 _1286_
*1676 _1287_
*1677 _1288_
*1678 _1289_
*1679 _1290_
*1680 _1291_
*1681 _1292_
*1682 _1293_
*1683 _1294_
*1684 _1295_
*1685 _1296_
*1686 _1297_
*1687 _1298_
*1688 _1299_
*1689 _1300_
*1690 _1301_
*1691 _1302_
*1692 _1303_
*1693 _1304_
*1694 _1305_
*1695 _1306_
*1696 _1307_
*1697 clkbuf_0_clk
*1698 _1310__60
*1699 _1310_
*1700 _1311_
*1701 _1312_
*1702 _1313_
*1703 _1314_
*1704 _1315_
*1705 _1316_
*1706 _1317_
*1707 _1318_
*1708 _1319_
*1709 _1320_
*1710 _1321_
*1711 _1322_
*1712 _1323_
*1713 _1324_
*1714 _1325_
*1715 _1326_
*1716 _1327_
*1717 _1328_
*1718 _1329_
*1719 _1330_
*1720 _1331_
*1721 _1332_
*1722 _1333_
*1723 desk_clock\.clk_gen_inst\.refclk_div\[0\]\$_SDFFE_PN0P_
*1724 desk_clock\.clk_gen_inst\.refclk_div\[10\]\$_SDFFE_PN0P_
*1725 desk_clock\.clk_gen_inst\.refclk_div\[11\]\$_SDFFE_PN0P_
*1726 desk_clock\.clk_gen_inst\.refclk_div\[12\]\$_SDFFE_PN0P_
*1727 desk_clock\.clk_gen_inst\.refclk_div\[13\]\$_SDFFE_PN0P_
*1728 desk_clock\.clk_gen_inst\.refclk_div\[14\]\$_SDFFE_PN0P_
*1729 desk_clock\.clk_gen_inst\.refclk_div\[1\]\$_SDFFE_PN0P_
*1730 desk_clock\.clk_gen_inst\.refclk_div\[2\]\$_SDFFE_PN0P_
*1731 desk_clock\.clk_gen_inst\.refclk_div\[3\]\$_SDFFE_PN0P_
*1732 desk_clock\.clk_gen_inst\.refclk_div\[4\]\$_SDFFE_PN0P_
*1733 desk_clock\.clk_gen_inst\.refclk_div\[5\]\$_SDFFE_PN0P_
*1734 desk_clock\.clk_gen_inst\.refclk_div\[6\]\$_SDFFE_PN0P_
*1735 desk_clock\.clk_gen_inst\.refclk_div\[7\]\$_SDFFE_PN0P_
*1736 desk_clock\.clk_gen_inst\.refclk_div\[8\]\$_SDFFE_PN0P_
*1737 desk_clock\.clk_gen_inst\.refclk_div\[9\]\$_SDFFE_PN0P_
*1738 desk_clock\.clk_gen_inst\.stb_gen_1hz\.sig_hold\$_SDFF_PN0_
*1739 desk_clock\.clk_gen_inst\.stb_gen_debounce_clk\.sig_hold\$_SDFF_PN0_
*1740 desk_clock\.clk_gen_inst\.stb_gen_fast_clk\.sig_hold\$_SDFF_PN0_
*1741 desk_clock\.clk_gen_inst\.stb_gen_refclk\.sig_hold\$_SDFF_PN0_
*1742 desk_clock\.clk_gen_inst\.stb_gen_slow_clk\.sig_hold\$_SDFF_PN0_
*1743 desk_clock\.clock_reg_inst\.o_hours\[0\]\$_SDFFE_PP0P_
*1744 desk_clock\.clock_reg_inst\.o_hours\[1\]\$_SDFFE_PP0P_
*1745 desk_clock\.clock_reg_inst\.o_hours\[2\]\$_SDFFE_PP0P_
*1746 desk_clock\.clock_reg_inst\.o_hours\[3\]\$_SDFFE_PP0P_
*1747 desk_clock\.clock_reg_inst\.o_hours\[4\]\$_SDFFE_PP0P_
*1748 desk_clock\.clock_reg_inst\.o_minutes\[0\]\$_SDFFE_PP0P_
*1749 desk_clock\.clock_reg_inst\.o_minutes\[1\]\$_SDFFE_PP0P_
*1750 desk_clock\.clock_reg_inst\.o_minutes\[2\]\$_SDFFE_PP0P_
*1751 desk_clock\.clock_reg_inst\.o_minutes\[3\]\$_SDFFE_PP0P_
*1752 desk_clock\.clock_reg_inst\.o_minutes\[4\]\$_SDFFE_PP0P_
*1753 desk_clock\.clock_reg_inst\.o_minutes\[5\]\$_SDFFE_PP0P_
*1754 desk_clock\.clock_reg_inst\.o_seconds\[0\]\$_SDFFE_PP0P_
*1755 desk_clock\.clock_reg_inst\.o_seconds\[1\]\$_SDFFE_PP0P_
*1756 desk_clock\.clock_reg_inst\.o_seconds\[2\]\$_SDFFE_PP0P_
*1757 desk_clock\.clock_reg_inst\.o_seconds\[3\]\$_SDFFE_PP0P_
*1758 desk_clock\.clock_reg_inst\.o_seconds\[4\]\$_SDFFE_PP0P_
*1759 desk_clock\.clock_reg_inst\.o_seconds\[5\]\$_SDFFE_PP0P_
*1760 desk_clock\.display_control_inst\.display_update\$_SDFF_PP1_
*1761 desk_clock\.display_control_inst\.startup\$_SDFFE_PN1P_
*1762 desk_clock\.display_inst\.disp_driver\.data_reg\[0\]\$_SDFFE_PN0P_
*1763 desk_clock\.display_inst\.disp_driver\.data_reg\[10\]\$_SDFFE_PN0P_
*1764 desk_clock\.display_inst\.disp_driver\.data_reg\[11\]\$_SDFFE_PN0P_
*1765 desk_clock\.display_inst\.disp_driver\.data_reg\[12\]\$_SDFFE_PP0P_