*SPEF "ieee 1481-1999"
*DESIGN "tt_um_simon_cipher"
*DATE "12:26:10 Tuesday October 29, 2024"
*VENDOR "The OpenROAD Project"
*PROGRAM "OpenROAD"
*VERSION "v2.0-16649-g40811f37f"
*DESIGN_FLOW "NAME_SCOPE LOCAL" "PIN_CAP NONE"
*DIVIDER /
*DELIMITER :
*BUS_DELIMITER []
*T_UNIT 1 NS
*C_UNIT 1 PF
*R_UNIT 1 OHM
*L_UNIT 1 HENRY

*NAME_MAP
*1 _0000_
*2 _0001_
*3 _0002_
*4 _0003_
*5 _0004_
*6 _0005_
*7 _0006_
*8 _0007_
*9 _0008_
*10 _0009_
*11 _0010_
*12 _0011_
*13 _0012_
*14 _0013_
*15 _0014_
*16 _0015_
*17 _0016_
*18 _0017_
*19 _0018_
*20 _0019_
*21 _0020_
*22 _0021_
*23 _0022_
*24 _0023_
*25 _0024_
*26 _0025_
*27 _0026_
*28 _0027_
*29 _0028_
*30 _0029_
*31 _0030_
*32 _0031_
*33 _0032_
*34 _0033_
*35 _0034_
*36 _0035_
*37 _0036_
*38 _0037_
*39 _0038_
*40 _0039_
*41 _0040_
*42 _0041_
*43 _0042_
*44 _0043_
*45 _0044_
*46 _0045_
*47 _0046_
*48 _0047_
*49 _0048_
*50 _0049_
*51 _0050_
*52 _0051_
*53 _0052_
*54 _0053_
*55 _0054_
*56 _0055_
*57 _0056_
*58 _0057_
*59 _0058_
*60 _0059_
*61 _0060_
*62 _0061_
*63 _0062_
*64 _0063_
*65 _0064_
*66 _0065_
*67 _0066_
*68 _0067_
*69 _0068_
*70 _0069_
*71 _0070_
*72 _0071_
*73 _0072_
*74 _0073_
*75 _0074_
*76 _0075_
*77 _0076_
*78 _0077_
*79 _0078_
*80 _0079_
*81 _0080_
*82 _0081_
*83 _0082_
*84 _0083_
*85 _0084_
*86 _0085_
*87 _0086_
*88 _0087_
*89 _0088_
*90 _0089_
*91 _0090_
*92 _0091_
*93 _0092_
*94 _0093_
*95 _0094_
*96 _0095_
*97 _0096_
*98 _0097_
*99 _0098_
*100 _0099_
*101 _0100_
*102 _0101_
*103 _0102_
*104 _0103_
*105 _0104_
*106 _0105_
*107 _0106_
*108 _0107_
*109 _0108_
*110 _0109_
*111 _0110_
*112 _0111_
*113 _0112_
*114 _0113_
*115 _0114_
*116 _0115_
*117 _0116_
*118 _0117_
*119 _0118_
*120 _0119_
*121 _0120_
*122 _0121_
*123 _0122_
*124 _0123_
*125 _0124_
*126 _0125_
*127 _0126_
*128 _0127_
*129 _0128_
*130 _0129_
*131 _0130_
*132 _0131_
*133 _0132_
*134 _0133_
*135 _0134_
*136 _0135_
*137 _0136_
*138 _0137_
*139 _0138_
*140 _0139_
*141 _0140_
*142 _0141_
*143 _0142_
*144 _0143_
*145 _0144_
*146 _0145_
*147 _0146_
*148 _0147_
*149 _0148_
*150 _0149_
*151 _0150_
*152 _0151_
*153 _0152_
*154 _0153_
*155 _0154_
*156 _0155_
*157 _0156_
*158 _0157_
*159 _0158_
*160 _0159_
*161 _0160_
*162 _0161_
*163 _0162_
*164 _0163_
*165 _0164_
*166 _0165_
*167 _0166_
*168 _0167_
*169 _0168_
*170 _0169_
*171 _0170_
*172 _0171_
*173 _0172_
*174 _0173_
*175 _0174_
*176 _0175_
*177 _0176_
*178 _0177_
*179 _0178_
*180 _0179_
*181 _0180_
*182 _0181_
*183 _0182_
*184 _0183_
*185 _0184_
*186 _0185_
*187 _0186_
*188 _0187_
*189 _0188_
*190 _0189_
*191 _0190_
*192 _0191_
*193 _0192_
*194 _0193_
*195 _0194_
*196 _0195_
*197 _0196_
*198 _0197_
*199 _0198_
*200 _0199_
*201 _0200_
*202 _0201_
*203 _0202_
*204 _0203_
*205 _0204_
*206 _0205_
*207 _0206_
*208 _0207_
*209 _0208_
*210 _0209_
*211 _0210_
*212 _0211_
*213 _0212_
*214 _0213_
*215 _0214_
*216 _0215_
*217 _0216_
*218 _0217_
*219 _0218_
*220 _0219_
*221 _0220_
*222 _0221_
*223 _0222_
*224 _0223_
*225 _0224_
*226 _0225_
*227 _0226_
*228 _0227_
*229 _0228_
*230 _0229_
*231 _0230_
*232 _0231_
*233 _0232_
*234 _0233_
*235 _0234_
*236 _0235_
*237 _0236_
*238 _0237_
*239 _0238_
*240 _0239_
*241 _0240_
*242 _0241_
*243 _0242_
*244 _0243_
*245 _0244_
*246 _0245_
*247 _0246_
*248 _0247_
*249 _0248_
*250 _0249_
*251 _0250_
*252 _0251_
*253 _0252_
*254 _0253_
*255 _0254_
*256 _0255_
*257 _0256_
*258 _0257_
*259 _0258_
*260 _0259_
*261 _0260_
*262 _0261_
*263 _0262_
*264 _0263_
*265 _0264_
*266 _0265_
*267 _0266_
*268 _0267_
*269 _0268_
*270 _0269_
*271 _0270_
*272 _0271_
*273 _0272_
*274 _0273_
*275 _0274_
*276 _0275_
*277 _0276_
*278 _0277_
*279 _0278_
*280 _0279_
*281 _0280_
*282 _0281_
*283 _0282_
*284 _0283_
*285 _0284_
*286 _0285_
*287 _0286_
*288 _0287_
*289 _0288_
*290 _0289_
*291 _0290_
*292 _0291_
*293 _0292_
*294 _0293_
*295 _0294_
*296 _0295_
*297 _0296_
*298 _0297_
*299 _0298_
*300 _0299_
*301 _0300_
*302 _0301_
*303 _0302_
*304 _0303_
*305 _0304_
*306 _0305_
*307 _0306_
*308 _0307_
*309 _0308_
*310 _0309_
*311 _0310_
*312 _0311_
*313 _0312_
*314 _0313_
*315 _0314_
*316 _0315_
*317 _0316_
*318 _0317_
*319 _0318_
*320 _0319_
*321 _0320_
*322 _0321_
*323 _0322_
*324 _0323_
*325 _0324_
*326 _0325_
*327 _0326_
*328 _0327_
*329 _0328_
*330 _0329_
*331 _0330_
*332 _0331_
*333 _0332_
*334 _0333_
*335 _0334_
*336 _0335_
*337 _0336_
*338 _0337_
*339 _0338_
*340 _0339_
*341 _0340_
*342 _0341_
*343 _0342_
*344 _0343_
*345 _0344_
*346 _0345_
*347 _0346_
*348 _0347_
*349 _0348_
*350 _0349_
*351 _0350_
*352 _0351_
*353 _0352_
*354 _0353_
*355 _0354_
*356 _0355_
*357 _0356_
*358 _0357_
*359 _0358_
*360 _0359_
*361 _0360_
*362 _0361_
*363 _0362_
*364 _0363_
*365 _0364_
*366 _0365_
*367 _0366_
*368 _0367_
*369 _0368_
*370 _0369_
*371 _0370_
*372 _0371_
*373 _0372_
*374 _0373_
*375 _0374_
*376 _0375_
*377 _0376_
*378 _0377_
*379 _0378_
*380 _0379_
*381 _0380_
*382 _0381_
*383 _0382_
*384 _0383_
*385 _0384_
*386 _0385_
*387 _0386_
*388 _0387_
*389 _0388_
*390 _0389_
*391 _0390_
*392 _0391_
*393 _0392_
*394 _0393_
*395 _0394_
*396 _0395_
*397 _0396_
*398 _0397_
*399 _0398_
*400 _0399_
*401 _0400_
*402 _0401_
*403 _0402_
*404 _0403_
*405 _0404_
*406 _0405_
*407 _0406_
*408 _0407_
*409 _0408_
*410 _0409_
*411 _0410_
*412 _0411_
*413 _0412_
*414 _0413_
*415 _0414_
*416 _0415_
*417 _0416_
*418 _0417_
*419 _0418_
*420 _0419_
*421 _0420_
*422 _0421_
*423 _0422_
*424 _0423_
*425 _0424_
*426 _0425_
*427 _0426_
*428 _0427_
*429 _0428_
*430 _0429_
*431 _0430_
*432 _0431_
*433 _0432_
*434 _0433_
*435 _0434_
*436 _0435_
*437 _0436_
*438 _0437_
*439 _0438_
*440 _0439_
*441 _0440_
*442 _0441_
*443 _0442_
*444 _0443_
*445 _0444_
*446 _0445_
*447 _0446_
*448 _0447_
*449 _0448_
*450 _0449_
*451 _0450_
*452 _0451_
*453 _0452_
*454 _0453_
*455 _0454_
*456 _0455_
*457 _0456_
*458 _0457_
*459 _0458_
*460 _0459_
*461 _0460_
*462 _0461_
*463 _0462_
*464 _0463_
*465 _0464_
*466 _0465_
*467 _0466_
*468 _0467_
*469 _0468_
*470 _0469_
*471 _0470_
*472 _0471_
*473 _0472_
*474 _0473_
*475 _0474_
*476 _0475_
*477 _0476_
*478 _0477_
*479 _0478_
*480 _0479_
*481 _0480_
*482 _0481_
*483 _0482_
*484 _0483_
*485 _0484_
*486 _0485_
*487 _0486_
*488 _0487_
*489 _0488_
*490 _0489_
*491 _0490_
*492 _0491_
*493 _0492_
*494 _0493_
*495 _0494_
*496 _0495_
*497 _0496_
*498 _0497_
*499 _0498_
*500 _0499_
*501 _0500_
*502 _0501_
*503 _0502_
*504 _0503_
*505 _0504_
*506 _0505_
*507 _0506_
*508 _0507_
*509 _0508_
*510 _0509_
*511 _0510_
*512 _0511_
*513 _0512_
*514 _0513_
*515 _0514_
*516 _0515_
*517 _0516_
*518 _0517_
*519 _0518_
*520 _0519_
*521 _0520_
*522 _0521_
*523 _0522_
*524 _0523_
*525 _0524_
*526 _0525_
*527 _0526_
*528 _0527_
*529 _0528_
*530 _0529_
*531 _0530_
*532 _0531_
*533 _0532_
*534 _0533_
*535 _0534_
*536 _0535_
*537 _0536_
*538 _0537_
*539 _0538_
*540 _0539_
*541 _0540_
*542 _0541_
*543 _0542_
*544 _0543_
*545 _0544_
*546 _0545_
*547 _0546_
*548 _0547_
*549 _0548_
*550 _0549_
*551 _0550_
*552 _0551_
*553 _0552_
*554 _0553_
*555 _0554_
*556 _0555_
*557 _0556_
*558 _0557_
*559 _0558_
*560 _0559_
*561 _0560_
*562 _0561_
*563 _0562_
*564 _0563_
*565 _0564_
*566 _0565_
*567 _0566_
*568 _0567_
*569 _0568_
*570 _0569_
*571 _0570_
*572 _0571_
*573 _0572_
*574 _0573_
*575 _0574_
*576 _0575_
*577 _0576_
*578 _0577_
*579 _0578_
*580 _0579_
*581 _0580_
*582 _0581_
*583 _0582_
*584 _0583_
*585 _0584_
*586 _0585_
*587 _0586_
*588 _0587_
*589 _0588_
*590 _0589_
*591 _0590_
*592 _0591_
*593 _0592_
*594 _0593_
*595 _0594_
*596 _0595_
*597 _0596_
*598 _0597_
*599 _0598_
*600 _0599_
*601 _0600_
*602 _0601_
*603 _0602_
*604 _0603_
*605 _0604_
*606 _0605_
*607 _0606_
*608 _0607_
*609 _0608_
*610 _0609_
*611 _0610_
*612 _0611_
*613 _0612_
*614 _0613_
*615 _0614_
*616 _0615_
*617 _0616_
*618 _0617_
*619 _0618_
*620 _0619_
*621 _0620_
*622 _0621_
*623 _0622_
*624 _0623_
*625 _0624_
*626 _0625_
*627 _0626_
*628 _0627_
*629 _0628_
*630 _0629_
*631 _0630_
*632 _0631_
*633 _0632_
*634 _0633_
*635 _0634_
*636 _0635_
*637 _0636_
*638 _0637_
*639 _0638_
*640 _0639_
*641 _0640_
*642 _0641_
*643 _0642_
*644 _0643_
*645 _0644_
*646 _0645_
*647 _0646_
*648 _0647_
*649 _0648_
*650 _0649_
*651 _0650_
*652 _0651_
*653 _0652_
*654 _0653_
*655 _0654_
*656 _0655_
*657 _0656_
*658 _0657_
*659 _0658_
*660 _0659_
*661 _0660_
*662 _0661_
*663 _0662_
*664 _0663_
*665 _0664_
*666 _0665_
*667 _0666_
*668 _0667_
*669 _0668_
*670 _0669_
*671 _0670_
*672 _0671_
*673 _0672_
*674 _0673_
*675 _0674_
*676 _0675_
*677 _0676_
*678 _0677_
*679 _0678_
*680 _0679_
*681 _0680_
*682 _0681_
*683 _0682_
*684 _0683_
*685 _0684_
*686 _0685_
*687 _0686_
*688 _0687_
*689 _0688_
*690 _0689_
*691 _0690_
*692 _0691_
*693 _0692_
*694 _0693_
*695 _0694_
*696 _0695_
*697 _0696_
*698 _0697_
*699 _0698_
*700 _0699_
*701 _0700_
*702 _0701_
*703 _0702_
*704 _0703_
*705 _0704_
*706 _0705_
*707 _0706_
*708 _0707_
*709 _0708_
*710 _0709_
*711 _0710_
*712 _0711_
*713 _0712_
*714 _0713_
*715 _0714_
*716 _0715_
*717 _0716_
*718 _0717_
*719 _0718_
*720 _0719_
*721 _0720_
*722 _0721_
*723 _0722_
*724 _0723_
*725 _0724_
*726 _0725_
*727 _0726_
*728 _0727_
*729 _0728_
*730 _0729_
*731 _0730_
*732 _0731_
*733 _0732_
*734 _0733_
*735 _0734_
*736 _0735_
*737 _0736_
*738 _0737_
*739 _0738_
*740 _0739_
*741 _0740_
*742 _0741_
*743 _0742_
*744 _0743_
*745 _0744_
*746 _0745_
*747 _0746_
*748 _0747_
*749 _0748_
*750 _0749_
*751 _0750_
*752 _0751_
*753 _0752_
*754 _0753_
*755 _0754_
*756 _0755_
*757 _0756_
*758 _0757_
*759 _0758_
*760 _0759_
*761 _0760_
*762 _0761_
*763 _0762_
*764 _0763_
*765 _0764_
*766 _0765_
*767 _0766_
*768 _0767_
*769 _0768_
*770 _0769_
*771 _0770_
*772 _0771_
*773 _0772_
*774 _0773_
*775 _0774_
*776 _0775_
*777 _0776_
*778 _0777_
*779 _0778_
*780 _0779_
*781 _0780_
*782 _0781_
*783 _0782_
*784 _0783_
*785 _0784_
*786 _0785_
*787 _0786_
*788 _0787_
*789 _0788_
*790 _0789_
*791 _0790_
*792 _0791_
*793 _0792_
*794 _0793_
*795 _0794_
*796 _0795_
*797 _0796_
*798 _0797_
*799 _0798_
*800 _0799_
*801 _0800_
*802 _0801_
*803 _0802_
*804 _0803_
*805 _0804_
*806 _0805_
*807 _0806_
*808 _0807_
*809 _0808_
*810 _0809_
*811 _0810_
*812 _0811_
*813 _0812_
*814 _0813_
*815 _0814_
*816 _0815_
*817 _0816_
*818 _0817_
*819 _0818_
*820 _0819_
*821 _0820_
*822 _0821_
*823 _0822_
*824 _0823_
*825 _0824_
*826 _0825_
*827 _0826_
*828 _0827_
*829 _0828_
*830 _0829_
*831 _0830_
*832 _0831_
*833 _0832_
*834 _0833_
*835 _0834_
*836 _0835_
*837 _0836_
*838 _0837_
*839 _0838_
*840 _0839_
*841 _0840_
*842 _0841_
*843 _0842_
*844 _0843_
*845 _0844_
*846 _0845_
*847 _0846_
*848 _0847_
*849 _0848_
*850 _0849_
*851 _0850_
*852 _0851_
*853 _0852_
*854 _0853_
*855 _0854_
*856 _0855_
*857 _0856_
*858 _0857_
*859 _0858_
*860 _0859_
*861 _0860_
*862 _0861_
*863 _0862_
*864 _0863_
*865 _0864_
*866 _0865_
*867 _0866_
*868 _0867_
*869 _0868_
*870 _0869_
*871 _0870_
*872 _0871_
*873 _0872_
*874 _0873_
*875 _0874_
*876 _0875_
*877 _0876_
*878 _0877_
*879 _0878_
*880 _0879_
*881 _0880_
*882 _0881_
*883 _0882_
*884 _0883_
*885 _0884_
*886 _0885_
*887 _0886_
*888 _0887_
*889 _0888_
*890 _0889_
*891 _0890_
*892 _0891_
*893 _0892_
*894 _0893_
*895 _0894_
*896 _0895_
*897 _0896_
*898 _0897_
*899 _0898_
*900 _0899_
*901 _0900_
*902 _0901_
*903 _0902_
*904 _0903_
*905 _0904_
*906 _0905_
*907 _0906_
*908 _0907_
*909 _0908_
*910 _0909_
*911 _0910_
*912 _0911_
*913 _0912_
*914 _0913_
*915 _0914_
*916 _0915_
*917 _0916_
*918 _0917_
*919 _0918_
*920 _0919_
*921 _0920_
*922 _0921_
*923 _0922_
*924 _0923_
*925 _0924_
*926 _0925_
*927 _0926_
*928 _0927_
*929 _0928_
*930 _0929_
*931 _0930_
*932 _0931_
*933 _0932_
*934 _0933_
*935 _0934_
*936 _0935_
*937 _0936_
*938 _0937_
*939 _0938_
*940 _0939_
*941 _0940_
*942 _0941_
*943 _0942_
*944 _0943_
*945 _0944_
*946 _0945_
*947 _0946_
*948 _0947_
*949 _0948_
*950 _0949_
*951 _0950_
*952 _0951_
*953 _0952_
*954 _0953_
*955 _0954_
*956 _0955_
*957 _0956_
*958 _0957_
*959 _0958_
*960 _0959_
*961 _0960_
*962 _0961_
*963 _0962_
*964 _0963_
*965 _0964_
*966 _0965_
*967 _0966_
*968 _0967_
*969 _0968_
*970 _0969_
*971 _0970_
*972 _0971_
*973 _0972_
*974 _0973_
*975 _0974_
*976 _0975_
*977 _0976_
*978 _0977_
*979 _0978_
*980 _0979_
*981 _0980_
*982 _0981_
*983 _0982_
*984 _0983_
*985 _0984_
*986 _0985_
*987 _0986_
*988 _0987_
*989 _0988_
*990 _0989_
*991 _0990_
*992 _0991_
*993 _0992_
*994 _0993_
*995 _0994_
*996 _0995_
*997 _0996_
*998 _0997_
*999 _0998_
*1000 _0999_
*1001 _1000_
*1002 _1001_
*1003 _1002_
*1004 _1003_
*1005 _1004_
*1006 _1005_
*1007 _1006_
*1008 _1007_
*1009 _1008_
*1010 _1009_
*1011 _1010_
*1012 _1011_
*1013 _1012_
*1014 _1013_
*1015 _1014_
*1016 _1015_
*1017 _1016_
*1018 _1017_
*1019 _1018_
*1020 _1019_
*1021 _1020_
*1022 _1021_
*1023 _1022_
*1024 _1023_
*1025 _1024_
*1026 _1025_
*1027 _1026_
*1028 _1027_
*1029 _1028_
*1030 _1029_
*1031 _1030_
*1032 _1031_
*1033 _1032_
*1034 _1033_
*1035 _1034_
*1036 _1035_
*1037 _1036_
*1038 _1037_
*1039 _1038_
*1040 _1039_
*1041 _1040_
*1042 _1041_
*1043 _1042_
*1044 _1043_
*1045 _1044_
*1046 _1045_
*1047 _1046_
*1048 _1047_
*1049 _1048_
*1050 _1049_
*1051 _1050_
*1052 _1051_
*1053 _1052_
*1054 _1053_
*1055 _1054_
*1056 _1055_
*1057 _1056_
*1058 _1057_
*1059 _1058_
*1060 _1059_
*1061 _1060_
*1062 _1061_
*1063 _1062_
*1064 _1063_
*1065 _1064_
*1066 _1065_
*1067 _1066_
*1068 _1067_
*1069 _1068_
*1070 _1069_
*1071 _1070_
*1072 _1071_
*1073 _1072_
*1074 _1073_
*1075 _1074_
*1076 _1075_
*1077 _1076_
*1078 _1077_
*1079 _1078_
*1080 _1079_
*1081 _1080_
*1082 _1081_
*1083 _1082_
*1084 _1083_
*1085 _1084_
*1086 _1085_
*1087 _1086_
*1088 _1087_
*1089 _1088_
*1090 _1089_
*1091 _1090_
*1092 _1091_
*1093 _1092_
*1094 _1093_
*1095 _1094_
*1096 _1095_
*1097 _1096_
*1098 clknet_leaf_0_clk
*1099 net100
*1100 bitserial_cipher\.bit_counter\[0\]
*1101 bitserial_cipher\.bit_counter\[1\]
*1102 bitserial_cipher\.bit_counter\[2\]
*1103 bitserial_cipher\.bit_counter\[3\]
*1104 bitserial_cipher\.bit_counter\[4\]
*1105 bitserial_cipher\.bit_counter\[5\]
*1106 bitserial_cipher\.cipher_out
*1107 bitserial_cipher\.datapath\.fifo_ff56
*1108 bitserial_cipher\.datapath\.fifo_ff57
*1109 bitserial_cipher\.datapath\.fifo_ff58
*1110 bitserial_cipher\.datapath\.fifo_ff59
*1111 bitserial_cipher\.datapath\.fifo_ff60
*1112 bitserial_cipher\.datapath\.fifo_ff61
*1113 bitserial_cipher\.datapath\.fifo_ff62
*1114 bitserial_cipher\.datapath\.fifo_ff63
*1115 bitserial_cipher\.datapath\.key_in
*1116 bitserial_cipher\.datapath\.lut_ff56
*1117 bitserial_cipher\.datapath\.lut_ff57
*1118 bitserial_cipher\.datapath\.lut_ff58
*1119 bitserial_cipher\.datapath\.lut_ff59
*1120 bitserial_cipher\.datapath\.lut_ff60
*1121 bitserial_cipher\.datapath\.lut_ff61
*1122 bitserial_cipher\.datapath\.lut_ff62
*1123 bitserial_cipher\.datapath\.lut_ff63
*1124 bitserial_cipher\.datapath\.round_counter\[0\]
*1125 bitserial_cipher\.datapath\.round_counter\[1\]
*1126 bitserial_cipher\.datapath\.round_counter\[2\]
*1127 bitserial_cipher\.datapath\.round_counter\[3\]
*1128 bitserial_cipher\.datapath\.round_counter\[4\]
*1129 bitserial_cipher\.datapath\.round_counter\[5\]
*1130 bitserial_cipher\.datapath\.round_counter\[6\]
*1131 bitserial_cipher\.datapath\.shift_in2
*1132 bitserial_cipher\.datapath\.shifter1\[10\]
*1133 bitserial_cipher\.datapath\.shifter1\[11\]
*1134 bitserial_cipher\.datapath\.shifter1\[12\]
*1135 bitserial_cipher\.datapath\.shifter1\[13\]
*1136 bitserial_cipher\.datapath\.shifter1\[14\]
*1137 bitserial_cipher\.datapath\.shifter1\[15\]
*1138 bitserial_cipher\.datapath\.shifter1\[16\]
*1139 bitserial_cipher\.datapath\.shifter1\[17\]
*1140 bitserial_cipher\.datapath\.shifter1\[18\]
*1141 bitserial_cipher\.datapath\.shifter1\[19\]
*1142 bitserial_cipher\.datapath\.shifter1\[1\]
*1143 bitserial_cipher\.datapath\.shifter1\[20\]
*1144 bitserial_cipher\.datapath\.shifter1\[21\]
*1145 bitserial_cipher\.datapath\.shifter1\[22\]
*1146 bitserial_cipher\.datapath\.shifter1\[23\]
*1147 bitserial_cipher\.datapath\.shifter1\[24\]
*1148 bitserial_cipher\.datapath\.shifter1\[25\]
*1149 bitserial_cipher\.datapath\.shifter1\[26\]
*1150 bitserial_cipher\.datapath\.shifter1\[27\]
*1151 bitserial_cipher\.datapath\.shifter1\[28\]
*1152 bitserial_cipher\.datapath\.shifter1\[29\]
*1153 bitserial_cipher\.datapath\.shifter1\[2\]
*1154 bitserial_cipher\.datapath\.shifter1\[30\]
*1155 bitserial_cipher\.datapath\.shifter1\[31\]
*1156 bitserial_cipher\.datapath\.shifter1\[32\]
*1157 bitserial_cipher\.datapath\.shifter1\[33\]
*1158 bitserial_cipher\.datapath\.shifter1\[34\]
*1159 bitserial_cipher\.datapath\.shifter1\[35\]
*1160 bitserial_cipher\.datapath\.shifter1\[36\]
*1161 bitserial_cipher\.datapath\.shifter1\[37\]
*1162 bitserial_cipher\.datapath\.shifter1\[38\]
*1163 bitserial_cipher\.datapath\.shifter1\[39\]
*1164 bitserial_cipher\.datapath\.shifter1\[3\]
*1165 bitserial_cipher\.datapath\.shifter1\[40\]
*1166 bitserial_cipher\.datapath\.shifter1\[41\]
*1167 bitserial_cipher\.datapath\.shifter1\[42\]
*1168 bitserial_cipher\.datapath\.shifter1\[43\]
*1169 bitserial_cipher\.datapath\.shifter1\[44\]
*1170 bitserial_cipher\.datapath\.shifter1\[45\]
*1171 bitserial_cipher\.datapath\.shifter1\[46\]
*1172 bitserial_cipher\.datapath\.shifter1\[47\]
*1173 bitserial_cipher\.datapath\.shifter1\[48\]
*1174 bitserial_cipher\.datapath\.shifter1\[49\]
*1175 bitserial_cipher\.datapath\.shifter1\[4\]
*1176 bitserial_cipher\.datapath\.shifter1\[50\]
*1177 bitserial_cipher\.datapath\.shifter1\[51\]
*1178 bitserial_cipher\.datapath\.shifter1\[52\]
*1179 bitserial_cipher\.datapath\.shifter1\[53\]
*1180 bitserial_cipher\.datapath\.shifter1\[54\]
*1181 bitserial_cipher\.datapath\.shifter1\[55\]
*1182 bitserial_cipher\.datapath\.shifter1\[5\]
*1183 bitserial_cipher\.datapath\.shifter1\[6\]
*1184 bitserial_cipher\.datapath\.shifter1\[7\]
*1185 bitserial_cipher\.datapath\.shifter1\[8\]
*1186 bitserial_cipher\.datapath\.shifter1\[9\]
*1187 bitserial_cipher\.datapath\.shifter2\[10\]
*1188 bitserial_cipher\.datapath\.shifter2\[11\]
*1189 bitserial_cipher\.datapath\.shifter2\[12\]
*1190 bitserial_cipher\.datapath\.shifter2\[13\]
*1191 bitserial_cipher\.datapath\.shifter2\[14\]
*1192 bitserial_cipher\.datapath\.shifter2\[15\]
*1193 bitserial_cipher\.datapath\.shifter2\[16\]
*1194 bitserial_cipher\.datapath\.shifter2\[17\]
*1195 bitserial_cipher\.datapath\.shifter2\[18\]
*1196 bitserial_cipher\.datapath\.shifter2\[19\]
*1197 bitserial_cipher\.datapath\.shifter2\[1\]
*1198 bitserial_cipher\.datapath\.shifter2\[20\]
*1199 bitserial_cipher\.datapath\.shifter2\[21\]
*1200 bitserial_cipher\.datapath\.shifter2\[22\]
*1201 bitserial_cipher\.datapath\.shifter2\[23\]
*1202 bitserial_cipher\.datapath\.shifter2\[24\]
*1203 bitserial_cipher\.datapath\.shifter2\[25\]
*1204 bitserial_cipher\.datapath\.shifter2\[26\]
*1205 bitserial_cipher\.datapath\.shifter2\[27\]
*1206 bitserial_cipher\.datapath\.shifter2\[28\]
*1207 bitserial_cipher\.datapath\.shifter2\[29\]
*1208 bitserial_cipher\.datapath\.shifter2\[2\]
*1209 bitserial_cipher\.datapath\.shifter2\[30\]
*1210 bitserial_cipher\.datapath\.shifter2\[31\]
*1211 bitserial_cipher\.datapath\.shifter2\[32\]
*1212 bitserial_cipher\.datapath\.shifter2\[33\]
*1213 bitserial_cipher\.datapath\.shifter2\[34\]
*1214 bitserial_cipher\.datapath\.shifter2\[35\]
*1215 bitserial_cipher\.datapath\.shifter2\[36\]
*1216 bitserial_cipher\.datapath\.shifter2\[37\]
*1217 bitserial_cipher\.datapath\.shifter2\[38\]
*1218 bitserial_cipher\.datapath\.shifter2\[39\]
*1219 bitserial_cipher\.datapath\.shifter2\[3\]
*1220 bitserial_cipher\.datapath\.shifter2\[40\]
*1221 bitserial_cipher\.datapath\.shifter2\[41\]
*1222 bitserial_cipher\.datapath\.shifter2\[42\]
*1223 bitserial_cipher\.datapath\.shifter2\[43\]
*1224 bitserial_cipher\.datapath\.shifter2\[44\]
*1225 bitserial_cipher\.datapath\.shifter2\[45\]
*1226 bitserial_cipher\.datapath\.shifter2\[46\]
*1227 bitserial_cipher\.datapath\.shifter2\[47\]
*1228 bitserial_cipher\.datapath\.shifter2\[48\]
*1229 bitserial_cipher\.datapath\.shifter2\[49\]
*1230 bitserial_cipher\.datapath\.shifter2\[4\]
*1231 bitserial_cipher\.datapath\.shifter2\[50\]
*1232 bitserial_cipher\.datapath\.shifter2\[51\]
*1233 bitserial_cipher\.datapath\.shifter2\[52\]
*1234 bitserial_cipher\.datapath\.shifter2\[53\]
*1235 bitserial_cipher\.datapath\.shifter2\[54\]
*1236 bitserial_cipher\.datapath\.shifter2\[55\]
*1237 bitserial_cipher\.datapath\.shifter2\[56\]
*1238 bitserial_cipher\.datapath\.shifter2\[57\]
*1239 bitserial_cipher\.datapath\.shifter2\[58\]
*1240 bitserial_cipher\.datapath\.shifter2\[59\]
*1241 bitserial_cipher\.datapath\.shifter2\[5\]
*1242 bitserial_cipher\.datapath\.shifter2\[60\]
*1243 bitserial_cipher\.datapath\.shifter2\[61\]
*1244 bitserial_cipher\.datapath\.shifter2\[62\]
*1245 bitserial_cipher\.datapath\.shifter2\[63\]
*1246 bitserial_cipher\.datapath\.shifter2\[6\]
*1247 bitserial_cipher\.datapath\.shifter2\[7\]
*1248 bitserial_cipher\.datapath\.shifter2\[8\]
*1249 bitserial_cipher\.datapath\.shifter2\[9\]
*1250 bitserial_cipher\.datapath\.valid
*1251 bitserial_cipher\.key_exp\.fifo_ff0
*1252 bitserial_cipher\.key_exp\.fifo_ff1
*1253 bitserial_cipher\.key_exp\.fifo_ff2
*1254 bitserial_cipher\.key_exp\.fifo_ff3
*1255 bitserial_cipher\.key_exp\.lut_ff0
*1256 bitserial_cipher\.key_exp\.lut_ff1
*1257 bitserial_cipher\.key_exp\.lut_ff2
*1258 bitserial_cipher\.key_exp\.lut_ff3
*1259 bitserial_cipher\.key_exp\.shift_out1
*1260 bitserial_cipher\.key_exp\.shifter1\[10\]
*1261 bitserial_cipher\.key_exp\.shifter1\[11\]
*1262 bitserial_cipher\.key_exp\.shifter1\[12\]
*1263 bitserial_cipher\.key_exp\.shifter1\[13\]
*1264 bitserial_cipher\.key_exp\.shifter1\[14\]
*1265 bitserial_cipher\.key_exp\.shifter1\[15\]
*1266 bitserial_cipher\.key_exp\.shifter1\[16\]
*1267 bitserial_cipher\.key_exp\.shifter1\[17\]
*1268 bitserial_cipher\.key_exp\.shifter1\[18\]
*1269 bitserial_cipher\.key_exp\.shifter1\[19\]
*1270 bitserial_cipher\.key_exp\.shifter1\[1\]
*1271 bitserial_cipher\.key_exp\.shifter1\[20\]
*1272 bitserial_cipher\.key_exp\.shifter1\[21\]
*1273 bitserial_cipher\.key_exp\.shifter1\[22\]
*1274 bitserial_cipher\.key_exp\.shifter1\[23\]
*1275 bitserial_cipher\.key_exp\.shifter1\[24\]
*1276 bitserial_cipher\.key_exp\.shifter1\[25\]
*1277 bitserial_cipher\.key_exp\.shifter1\[26\]
*1278 bitserial_cipher\.key_exp\.shifter1\[27\]
*1279 bitserial_cipher\.key_exp\.shifter1\[28\]
*1280 bitserial_cipher\.key_exp\.shifter1\[29\]
*1281 bitserial_cipher\.key_exp\.shifter1\[2\]
*1282 bitserial_cipher\.key_exp\.shifter1\[30\]
*1283 bitserial_cipher\.key_exp\.shifter1\[31\]
*1284 bitserial_cipher\.key_exp\.shifter1\[32\]
*1285 bitserial_cipher\.key_exp\.shifter1\[33\]
*1286 bitserial_cipher\.key_exp\.shifter1\[34\]
*1287 bitserial_cipher\.key_exp\.shifter1\[35\]
*1288 bitserial_cipher\.key_exp\.shifter1\[36\]
*1289 bitserial_cipher\.key_exp\.shifter1\[37\]
*1290 bitserial_cipher\.key_exp\.shifter1\[38\]
*1291 bitserial_cipher\.key_exp\.shifter1\[39\]
*1292 bitserial_cipher\.key_exp\.shifter1\[3\]
*1293 bitserial_cipher\.key_exp\.shifter1\[40\]
*1294 bitserial_cipher\.key_exp\.shifter1\[41\]
*1295 bitserial_cipher\.key_exp\.shifter1\[42\]
*1296 bitserial_cipher\.key_exp\.shifter1\[43\]
*1297 bitserial_cipher\.key_exp\.shifter1\[44\]
*1298 bitserial_cipher\.key_exp\.shifter1\[45\]
*1299 bitserial_cipher\.key_exp\.shifter1\[46\]
*1300 bitserial_cipher\.key_exp\.shifter1\[47\]
*1301 bitserial_cipher\.key_exp\.shifter1\[48\]
*1302 bitserial_cipher\.key_exp\.shifter1\[49\]
*1303 bitserial_cipher\.key_exp\.shifter1\[4\]
*1304 bitserial_cipher\.key_exp\.shifter1\[50\]
*1305 bitserial_cipher\.key_exp\.shifter1\[51\]
*1306 bitserial_cipher\.key_exp\.shifter1\[52\]
*1307 bitserial_cipher\.key_exp\.shifter1\[53\]
*1308 bitserial_cipher\.key_exp\.shifter1\[54\]
*1309 bitserial_cipher\.key_exp\.shifter1\[55\]
*1310 bitserial_cipher\.key_exp\.shifter1\[56\]
*1311 bitserial_cipher\.key_exp\.shifter1\[57\]
*1312 bitserial_cipher\.key_exp\.shifter1\[58\]
*1313 bitserial_cipher\.key_exp\.shifter1\[59\]
*1314 bitserial_cipher\.key_exp\.shifter1\[5\]
*1315 bitserial_cipher\.key_exp\.shifter1\[6\]
*1316 bitserial_cipher\.key_exp\.shifter1\[7\]
*1317 bitserial_cipher\.key_exp\.shifter1\[8\]
*1318 bitserial_cipher\.key_exp\.shifter1\[9\]
*1319 bitserial_cipher\.key_exp\.shifter2\[10\]
*1320 bitserial_cipher\.key_exp\.shifter2\[11\]
*1321 bitserial_cipher\.key_exp\.shifter2\[12\]
*1322 bitserial_cipher\.key_exp\.shifter2\[13\]
*1323 bitserial_cipher\.key_exp\.shifter2\[14\]
*1324 bitserial_cipher\.key_exp\.shifter2\[15\]
*1325 bitserial_cipher\.key_exp\.shifter2\[16\]
*1326 bitserial_cipher\.key_exp\.shifter2\[17\]
*1327 bitserial_cipher\.key_exp\.shifter2\[18\]
*1328 bitserial_cipher\.key_exp\.shifter2\[19\]
*1329 bitserial_cipher\.key_exp\.shifter2\[1\]
*1330 bitserial_cipher\.key_exp\.shifter2\[20\]
*1331 bitserial_cipher\.key_exp\.shifter2\[21\]
*1332 bitserial_cipher\.key_exp\.shifter2\[22\]
*1333 bitserial_cipher\.key_exp\.shifter2\[23\]
*1334 bitserial_cipher\.key_exp\.shifter2\[24\]
*1335 bitserial_cipher\.key_exp\.shifter2\[25\]
*1336 bitserial_cipher\.key_exp\.shifter2\[26\]
*1337 bitserial_cipher\.key_exp\.shifter2\[27\]
*1338 bitserial_cipher\.key_exp\.shifter2\[28\]
*1339 bitserial_cipher\.key_exp\.shifter2\[29\]
*1340 bitserial_cipher\.key_exp\.shifter2\[2\]
*1341 bitserial_cipher\.key_exp\.shifter2\[30\]
*1342 bitserial_cipher\.key_exp\.shifter2\[31\]
*1343 bitserial_cipher\.key_exp\.shifter2\[32\]
*1344 bitserial_cipher\.key_exp\.shifter2\[33\]
*1345 bitserial_cipher\.key_exp\.shifter2\[34\]
*1346 bitserial_cipher\.key_exp\.shifter2\[35\]
*1347 bitserial_cipher\.key_exp\.shifter2\[36\]
*1348 bitserial_cipher\.key_exp\.shifter2\[37\]
*1349 bitserial_cipher\.key_exp\.shifter2\[38\]
*1350 bitserial_cipher\.key_exp\.shifter2\[39\]
*1351 bitserial_cipher\.key_exp\.shifter2\[3\]
*1352 bitserial_cipher\.key_exp\.shifter2\[40\]
*1353 bitserial_cipher\.key_exp\.shifter2\[41\]
*1354 bitserial_cipher\.key_exp\.shifter2\[42\]
*1355 bitserial_cipher\.key_exp\.shifter2\[43\]
*1356 bitserial_cipher\.key_exp\.shifter2\[44\]
*1357 bitserial_cipher\.key_exp\.shifter2\[45\]
*1358 bitserial_cipher\.key_exp\.shifter2\[46\]
*1359 bitserial_cipher\.key_exp\.shifter2\[47\]
*1360 bitserial_cipher\.key_exp\.shifter2\[48\]
*1361 bitserial_cipher\.key_exp\.shifter2\[49\]
*1362 bitserial_cipher\.key_exp\.shifter2\[4\]
*1363 bitserial_cipher\.key_exp\.shifter2\[50\]
*1364 bitserial_cipher\.key_exp\.shifter2\[51\]
*1365 bitserial_cipher\.key_exp\.shifter2\[52\]
*1366 bitserial_cipher\.key_exp\.shifter2\[53\]
*1367 bitserial_cipher\.key_exp\.shifter2\[54\]
*1368 bitserial_cipher\.key_exp\.shifter2\[55\]
*1369 bitserial_cipher\.key_exp\.shifter2\[56\]
*1370 bitserial_cipher\.key_exp\.shifter2\[57\]
*1371 bitserial_cipher\.key_exp\.shifter2\[58\]
*1372 bitserial_cipher\.key_exp\.shifter2\[59\]
*1373 bitserial_cipher\.key_exp\.shifter2\[5\]
*1374 bitserial_cipher\.key_exp\.shifter2\[60\]
*1375 bitserial_cipher\.key_exp\.shifter2\[61\]
*1376 bitserial_cipher\.key_exp\.shifter2\[62\]
*1377 bitserial_cipher\.key_exp\.shifter2\[63\]
*1378 bitserial_cipher\.key_exp\.shifter2\[6\]
*1379 bitserial_cipher\.key_exp\.shifter2\[7\]
*1380 bitserial_cipher\.key_exp\.shifter2\[8\]
*1381 bitserial_cipher\.key_exp\.shifter2\[9\]
*1382 bitserial_cipher\.zero
*1383 clk
*1384 ena
*1385 rst_n
*1386 ui_in[0]
*1387 ui_in[1]
*1388 ui_in[2]
*1389 ui_in[3]
*1390 ui_in[4]
*1391 ui_in[5]
*1392 ui_in[6]
*1393 ui_in[7]
*1394 uio_in[0]
*1395 uio_in[1]
*1396 uio_in[2]
*1397 uio_in[3]
*1398 uio_in[4]
*1399 uio_in[5]
*1400 uio_in[6]
*1401 uio_in[7]
*1402 uio_oe[0]
*1403 uio_oe[1]
*1404 uio_oe[2]
*1405 uio_oe[3]
*1406 uio_oe[4]
*1407 uio_oe[5]
*1408 uio_oe[6]
*1409 uio_oe[7]
*1410 uio_out[0]
*1411 uio_out[1]
*1412 uio_out[2]
*1413 uio_out[3]
*1414 uio_out[4]
*1415 uio_out[5]
*1416 uio_out[6]
*1417 uio_out[7]
*1418 uo_out[0]
*1419 uo_out[1]
*1420 uo_out[2]
*1421 uo_out[3]
*1422 uo_out[4]
*1423 uo_out[5]
*1424 uo_out[6]
*1425 uo_out[7]
*1428 net1
*1429 net2
*1430 net3
*1431 net4
*1432 net5
*1433 net6
*1434 net7
*1435 net8
*1436 net9
*1437 net10
*1438 net11
*1439 net12
*1440 net13
*1441 net14
*1442 net15
*1443 net16
*1444 net17
*1445 net18
*1446 net19
*1447 net20
*1448 net21
*1449 net22
*1450 net23
*1451 net24
*1452 net25
*1453 net26
*1454 net27
*1455 net28
*1456 net29
*1457 net30
*1458 net31
*1459 net32
*1460 net33
*1461 net34
*1462 net35
*1463 net36
*1464 net37
*1465 net38
*1466 net39
*1467 net40
*1468 net41
*1469 net42
*1470 net43
*1471 net44
*1472 net45
*1473 net46
*1474 net47
*1475 net48
*1476 net49
*1477 net50
*1478 net51
*1479 net52
*1480 net53
*1481 net54
*1482 net55
*1483 net56
*1484 net57
*1485 net58
*1486 net59
*1487 net60
*1488 net61
*1489 net62
*1490 net63
*1491 net64
*1492 net65
*1493 net66
*1494 net67
*1495 net68
*1496 net69
*1497 net70
*1498 net71
*1499 net72
*1500 net73
*1501 net74
*1502 net75
*1503 net76
*1504 net77
*1505 net78
*1506 net79
*1507 net80
*1508 net81
*1509 net82
*1510 net83
*1511 net84
*1512 net85
*1513 net86
*1514 net87
*1515 net88
*1516 net89
*1517 net90
*1518 net91
*1519 net92
*1520 net93
*1521 net94
*1522 net95
*1523 net96
*1524 net97
*1525 net98
*1526 net99
*1527 net101
*1528 net102
*1529 net103
*1530 net104
*1531 net105
*1532 net106
*1533 net107
*1534 net108
*1535 net109
*1536 net110
*1537 net111
*1538 net112
*1539 net113
*1540 net114
*1541 net115
*1542 net116
*1543 net117
*1544 net118
*1545 net119
*1546 net120
*1547 net121
*1548 net122
*1549 net123
*1550 net124
*1551 net125
*1552 net126
*1553 net127
*1554 net128
*1555 net129
*1556 net130
*1557 net131
*1558 net132
*1559 net133
*1560 net134
*1561 net135
*1562 net136
*1563 net137
*1564 net138
*1565 net139
*1566 net140
*1567 net141
*1568 net142
*1569 net143
*1570 net144
*1571 net145
*1572 net146
*1573 net147
*1574 net148
*1575 net149
*1576 net150
*1577 net151
*1578 net152
*1579 net153
*1580 net154
*1581 net155
*1582 net156
*1583 net157
*1584 net158
*1585 net159
*1586 net160
*1587 net161
*1588 net162
*1589 net163
*1590 net164
*1591 net165
*1592 net166
*1593 net167
*1594 net168
*1595 net169
*1596 net170
*1597 net171
*1598 net172
*1599 net173
*1600 net174
*1601 net175
*1602 net176
*1603 net177
*1604 net178
*1605 net179
*1606 net180
*1607 net181
*1608 net182
*1609 net183
*1610 net184
*1611 net185
*1612 net186
*1613 net187
*1614 net188