*SPEF "ieee 1481-1999"
*DESIGN "tt_um_hpretl_spi"
*DATE "14:00:03 Sunday October 27, 2024"
*VENDOR "The OpenROAD Project"
*PROGRAM "OpenROAD"
*VERSION "v2.0-16649-g40811f37f"
*DESIGN_FLOW "NAME_SCOPE LOCAL" "PIN_CAP NONE"
*DIVIDER /
*DELIMITER :
*BUS_DELIMITER []
*T_UNIT 1 NS
*C_UNIT 1 PF
*R_UNIT 1 OHM
*L_UNIT 1 HENRY

*NAME_MAP
*1 _000_
*2 _001_
*3 _002_
*4 _003_
*5 _004_
*6 _005_
*7 _006_
*8 _007_
*9 _008_
*10 _009_
*11 _010_
*12 _011_
*13 _012_
*14 _013_
*15 _014_
*16 _015_
*17 _016_
*18 _017_
*19 _018_
*20 _019_
*21 _020_
*22 _021_
*23 _022_
*24 _023_
*25 _024_
*26 _025_
*27 _026_
*28 _027_
*29 _028_
*30 _029_
*31 _030_
*32 _031_
*33 _032_
*34 _033_
*35 _034_
*36 _035_
*37 _036_
*38 _037_
*39 _038_
*40 _039_
*41 _040_
*42 _041_
*43 _042_
*44 _043_
*45 _044_
*46 _045_
*47 _046_
*48 _047_
*49 _048_
*50 _049_
*51 _050_
*52 _051_
*53 _052_
*54 _053_
*55 _054_
*56 _055_
*57 _056_
*58 _057_
*59 _058_
*60 _059_
*61 _060_
*62 _061_
*63 _062_
*64 _063_
*65 _064_
*66 _065_
*67 _066_
*68 _067_
*69 _068_
*70 _069_
*71 _070_
*72 _071_
*73 _072_
*74 _073_
*75 _074_
*76 _075_
*77 _076_
*78 _077_
*79 _078_
*80 _079_
*81 _080_
*82 _081_
*83 _082_
*84 _083_
*85 _084_
*86 _085_
*87 _086_
*88 clknet_0_clk
*89 net28
*90 clk
*91 dut\.data_r\[0\]
*92 dut\.data_r\[10\]
*93 dut\.data_r\[11\]
*94 dut\.data_r\[12\]
*95 dut\.data_r\[13\]
*96 dut\.data_r\[14\]
*97 dut\.data_r\[15\]
*98 dut\.data_r\[1\]
*99 dut\.data_r\[2\]
*100 dut\.data_r\[3\]
*101 dut\.data_r\[4\]
*102 dut\.data_r\[5\]
*103 dut\.data_r\[6\]
*104 dut\.data_r\[7\]
*105 dut\.data_r\[8\]
*106 dut\.data_r\[9\]
*107 dut\.last_spi_clk_r
*108 dut\.o_check
*109 dut\.o_det
*110 dut\.o_spi_dat
*111 dut\.scan_r\[0\]
*112 dut\.scan_r\[10\]
*113 dut\.scan_r\[11\]
*114 dut\.scan_r\[12\]
*115 dut\.scan_r\[13\]
*116 dut\.scan_r\[14\]
*117 dut\.scan_r\[1\]
*118 dut\.scan_r\[2\]
*119 dut\.scan_r\[3\]
*120 dut\.scan_r\[4\]
*121 dut\.scan_r\[5\]
*122 dut\.scan_r\[6\]
*123 dut\.scan_r\[7\]
*124 dut\.scan_r\[8\]
*125 dut\.scan_r\[9\]
*126 ena
*127 rst_n
*128 ui_in[0]
*129 ui_in[1]
*130 ui_in[2]
*131 ui_in[3]
*132 ui_in[4]
*133 ui_in[5]
*134 ui_in[6]
*135 ui_in[7]
*136 uio_in[0]
*137 uio_in[1]
*138 uio_in[2]
*139 uio_in[3]
*140 uio_in[4]
*141 uio_in[5]
*142 uio_in[6]
*143 uio_in[7]
*144 uio_oe[0]
*145 uio_oe[1]
*146 uio_oe[2]
*147 uio_oe[3]
*148 uio_oe[4]
*149 uio_oe[5]
*150 uio_oe[6]
*151 uio_oe[7]
*152 uio_out[0]
*153 uio_out[1]
*154 uio_out[2]
*155 uio_out[3]
*156 uio_out[4]
*157 uio_out[5]
*158 uio_out[6]
*159 uio_out[7]
*160 uo_out[0]
*161 uo_out[1]
*162 uo_out[2]
*163 uo_out[3]
*164 uo_out[4]
*165 uo_out[5]
*166 uo_out[6]
*167 uo_out[7]
*170 net1
*171 net2
*172 net3
*173 net4
*174 net5
*175 net6
*176 net7
*177 net8
*178 net9
*179 net10
*180 net11
*181 net12
*182 net13
*183 net14
*184 net15
*185 net16
*186 net17
*187 net18
*188 net19
*189 net20
*190 net21
*191 net22
*192 net23
*193 net24
*194 net25
*195 net26
*196 net27
*197 net29
*198 net30
*199 net31
*200 net32
*201 net33
*202 net34
*203 net35
*204 net36
*205 clknet_3_0__leaf_clk
*206 clknet_3_1__leaf_clk
*207 clknet_3_2__leaf_clk
*208 clknet_3_3__leaf_clk
*209 clknet_3_4__leaf_clk
*210 clknet_3_5__leaf_clk
*211 clknet_3_6__leaf_clk
*212 clknet_3_7__leaf_clk
*213 _089_
*214 _090_
*215 _091_
*216 _092_
*217 _093_
*218 _094_
*219 _095_
*220 _096_
*221 _097_
*222 _098_
*223 _099_
*224 _100_
*225 _101_
*226 _102_
*227 _103_
*228 _104_
*229 _105_
*230 _106_
*231 _107_
*232 _108_
*233 _109_
*234 _110_
*235 _111_
*236 _112_
*237 _113_
*238 _114_
*239 _115_
*240 _116_
*241 _117_
*242 _118_
*243 _119_
*244 _120_
*245 _121_
*246 _122_
*247 _123_
*248 _124_
*249 _125_
*250 _126_
*251 _127_
*252 _128_
*253 _129_
*254 _130_
*255 _131_
*256 _132_
*257 _133_
*258 _134_
*259 _135_
*260 _136_
*261 _137_
*262 _138_
*263 _139_
*264 _140_
*265 _141_
*266 _142_
*267 _143_
*268 _144_
*269 _145_
*270 _146_
*271 _147_
*272 _148_
*273 _149_
*274 _150_
*275 _151_
*276 _152_
*277 clkbuf_0_clk
*278 _155__28
*279 _155_
*280 _156_
*281 _157_
*282 _158_
*283 _159_
*284 _160_
*285 _161_
*286 _162_
*287 _163_
*288 _164_
*289 _165_
*290 _166_
*291 _167_
*292 _168_
*293 _169_
*294 _170_
*295 dut\.data_r\[0\]\$_DFFE_PN0P_
*296 dut\.data_r\[10\]\$_DFFE_PN0P_
*297 dut\.data_r\[11\]\$_DFFE_PN0P_
*298 dut\.data_r\[12\]\$_DFFE_PN0P_
*299 dut\.data_r\[13\]\$_DFFE_PN0P_
*300 dut\.data_r\[14\]\$_DFFE_PN0P_
*301 dut\.data_r\[15\]\$_DFFE_PN0P_
*302 dut\.data_r\[1\]\$_DFFE_PN0P_
*303 dut\.data_r\[2\]\$_DFFE_PN0P_
*304 dut\.data_r\[3\]\$_DFFE_PN0P_
*305 dut\.data_r\[4\]\$_DFFE_PN0P_
*306 dut\.data_r\[5\]\$_DFFE_PN0P_
*307 dut\.data_r\[6\]\$_DFFE_PN0P_
*308 dut\.data_r\[7\]\$_DFFE_PN0P_
*309 dut\.data_r\[8\]\$_DFFE_PN0P_
*310 dut\.data_r\[9\]\$_DFFE_PN0P_
*311 dut\.last_spi_clk_r\$_DFF_PN0_
*312 dut\.scan_r\[0\]\$_DFFE_PN0P_
*313 dut\.scan_r\[10\]\$_DFFE_PN0P_
*314 dut\.scan_r\[11\]\$_DFFE_PN0P_
*315 dut\.scan_r\[12\]\$_DFFE_PN0P_
*316 dut\.scan_r\[13\]\$_DFFE_PN0P_
*317 dut\.scan_r\[14\]\$_DFFE_PN0P_
*318 dut\.scan_r\[15\]\$_DFFE_PN0P_
*319 dut\.scan_r\[1\]\$_DFFE_PN0P_
*320 dut\.scan_r\[2\]\$_DFFE_PN0P_
*321 dut\.scan_r\[3\]\$_DFFE_PN0P_
*322 dut\.scan_r\[4\]\$_DFFE_PN0P_
*323 dut\.scan_r\[5\]\$_DFFE_PN0P_
*324 dut\.scan_r\[6\]\$_DFFE_PN0P_
*325 dut\.scan_r\[7\]\$_DFFE_PN0P_
*326 dut\.scan_r\[8\]\$_DFFE_PN0P_
*327 dut\.scan_r\[9\]\$_DFFE_PN0P_
*328 input1
*329 input2
*330 input3
*331 output4
*332 output5
*333 output6
*334 output7
*335 output8
*336 output9
*337 output10
*338 output11
*339 output12
*340 output13
*341 output14
*342 fanout15
*343 fanout16
*344 fanout17
*345 fanout18
*346 fanout19
*347 fanout20
*348 fanout21
*349 fanout22
*350 fanout23
*351 _166__24
*352 _167__25
*353 _168__26
*354 _169__27
*355 _156__29
*356 _157__30
*357 _158__31
*358 _159__32
*359 _160__33
*360 _161__34
*361 _162__35
*362 _170__36
*363 clkbuf_3_0__f_clk
*364 clkbuf_3_1__f_clk
*365 clkbuf_3_2__f_clk
*366 clkbuf_3_3__f_clk
*367 clkbuf_3_4__f_clk
*368 clkbuf_3_5__f_clk
*369 clkbuf_3_6__f_clk
*370 clkbuf_3_7__f_clk
*371 clkload0
*372 clkload1
*373 clkload2
*374 clkload3
*375 clkload4
*376 clkload5
*377 clkload6
*378 FILLER_0_0
*379 FILLER_0_7
*380 FILLER_0_14
*381 FILLER_0_21
*382 FILLER_0_28
*383 FILLER_0_35
*384 FILLER_0_42
*385 FILLER_0_49
*386 FILLER_0_56
*387 FILLER_0_63
*388 FILLER_0_70
*389 FILLER_0_77
*390 FILLER_0_84
*391 FILLER_0_91
*392 FILLER_0_98
*393 FILLER_0_105
*394 FILLER_0_112
*395 FILLER_0_119
*396 FILLER_0_126
*397 FILLER_0_133
*398 FILLER_0_140
*399 FILLER_0_147
*400 FILLER_0_154
*401 FILLER_0_161
*402 FILLER_0_168
*403 FILLER_0_175
*404 FILLER_0_182
*405 FILLER_0_189
*406 FILLER_0_196
*407 FILLER_0_203
*408 FILLER_0_210
*409 FILLER_0_217
*410 FILLER_0_224
*411 FILLER_0_231
*412 FILLER_0_238
*413 FILLER_0_245
*414 FILLER_0_252
*415 FILLER_0_259
*416 FILLER_0_266
*417 FILLER_0_273
*418 FILLER_0_280
*419 FILLER_0_287
*420 FILLER_0_294
*421 FILLER_0_301
*422 FILLER_0_308
*423 FILLER_0_315
*424 FILLER_0_322
*425 FILLER_0_329
*426 FILLER_0_336
*427 FILLER_0_343
*428 FILLER_0_350
*429 FILLER_0_357
*430 FILLER_0_364
*431 FILLER_0_371
*432 FILLER_0_378
*433 FILLER_0_385
*434 FILLER_0_392
*435 FILLER_0_399
*436 FILLER_0_406
*437 FILLER_0_413
*438 FILLER_0_420
*439 FILLER_0_427
*440 FILLER_0_429
*441 FILLER_1_0
*442 FILLER_1_7
*443 FILLER_1_14
*444 FILLER_1_21
*445 FILLER_1_28
*446 FILLER_1_35
*447 FILLER_1_42
*448 FILLER_1_49
*449 FILLER_1_56
*450 FILLER_1_63
*451 FILLER_1_70
*452 FILLER_1_77
*453 FILLER_1_84
*454 FILLER_1_91
*455 FILLER_1_98
*456 FILLER_1_105
*457 FILLER_1_112
*458 FILLER_1_119
*459 FILLER_1_126
*460 FILLER_1_133
*461 FILLER_1_140
*462 FILLER_1_147
*463 FILLER_1_154
*464 FILLER_1_161
*465 FILLER_1_168
*466 FILLER_1_175
*467 FILLER_1_182
*468 FILLER_1_189
*469 FILLER_1_196
*470 FILLER_1_203
*471 FILLER_1_210
*472 FILLER_1_217
*473 FILLER_1_224
*474 FILLER_1_231
*475 FILLER_1_238
*476 FILLER_1_245
*477 FILLER_1_252
*478 FILLER_1_259
*479 FILLER_1_266
*480 FILLER_1_273
*481 FILLER_1_280
*482 FILLER_1_287
*483 FILLER_1_294
*484 FILLER_1_301
*485 FILLER_1_308
*486 FILLER_1_315
*487 FILLER_1_322
*488 FILLER_1_329
*489 FILLER_1_336
*490 FILLER_1_343
*491 FILLER_1_350
*492 FILLER_1_357
*493 FILLER_1_364
*494 FILLER_1_371
*495 FILLER_1_378
*496 FILLER_1_385
*497 FILLER_1_392
*498 FILLER_1_399
*499 FILLER_1_406
*500 FILLER_1_413
*501 FILLER_1_420
*502 FILLER_1_427
*503 FILLER_1_429
*504 FILLER_2_0
*505 FILLER_2_7
*506 FILLER_2_14
*507 FILLER_2_21
*508 FILLER_2_28
*509 FILLER_2_35
*510 FILLER_2_42
*511 FILLER_2_49
*512 FILLER_2_56
*513 FILLER_2_63
*514 FILLER_2_70
*515 FILLER_2_77
*516 FILLER_2_84
*517 FILLER_2_91
*518 FILLER_2_98
*519 FILLER_2_105
*520 FILLER_2_112
*521 FILLER_2_119
*522 FILLER_2_126
*523 FILLER_2_133
*524 FILLER_2_140
*525 FILLER_2_147
*526 FILLER_2_154
*527 FILLER_2_161
*528 FILLER_2_168
*529 FILLER_2_175
*530 FILLER_2_182
*531 FILLER_2_189
*532 FILLER_2_196
*533 FILLER_2_203
*534 FILLER_2_210
*535 FILLER_2_217
*536 FILLER_2_224
*537 FILLER_2_231
*538 FILLER_2_238
*539 FILLER_2_245
*540 FILLER_2_252
*541 FILLER_2_259
*542 FILLER_2_266
*543 FILLER_2_273
*544 FILLER_2_280
*545 FILLER_2_287
*546 FILLER_2_294
*547 FILLER_2_301
*548 FILLER_2_308
*549 FILLER_2_315
*550 FILLER_2_322
*551 FILLER_2_329
*552 FILLER_2_336
*553 FILLER_2_343
*554 FILLER_2_350
*555 FILLER_2_357
*556 FILLER_2_364
*557 FILLER_2_371
*558 FILLER_2_378
*559 FILLER_2_385
*560 FILLER_2_392
*561 FILLER_2_399
*562 FILLER_2_406
*563 FILLER_2_413
*564 FILLER_2_420
*565 FILLER_2_427
*566 FILLER_2_429
*567 FILLER_3_0
*568 FILLER_3_7
*569 FILLER_3_14
*570 FILLER_3_21
*571 FILLER_3_28
*572 FILLER_3_35
*573 FILLER_3_42
*574 FILLER_3_49
*575 FILLER_3_56
*576 FILLER_3_63
*577 FILLER_3_70
*578 FILLER_3_77
*579 FILLER_3_84
*580 FILLER_3_91
*581 FILLER_3_98
*582 FILLER_3_105
*583 FILLER_3_112
*584 FILLER_3_119
*585 FILLER_3_126
*586 FILLER_3_133
*587 FILLER_3_140
*588 FILLER_3_147
*589 FILLER_3_154
*590 FILLER_3_161
*591 FILLER_3_168
*592 FILLER_3_175
*593 FILLER_3_182
*594 FILLER_3_189
*595 FILLER_3_196
*596 FILLER_3_203
*597 FILLER_3_210
*598 FILLER_3_217
*599 FILLER_3_224
*600 FILLER_3_231
*601 FILLER_3_238
*602 FILLER_3_245
*603 FILLER_3_252
*604 FILLER_3_259
*605 FILLER_3_266
*606 FILLER_3_273
*607 FILLER_3_280
*608 FILLER_3_287
*609 FILLER_3_294
*610 FILLER_3_301
*611 FILLER_3_308
*612 FILLER_3_315
*613 FILLER_3_322
*614 FILLER_3_329
*615 FILLER_3_336
*616 FILLER_3_343
*617 FILLER_3_350
*618 FILLER_3_357
*619 FILLER_3_364
*620 FILLER_3_371
*621 FILLER_3_378
*622 FILLER_3_385
*623 FILLER_3_392
*624 FILLER_3_399
*625 FILLER_3_406
*626 FILLER_3_413
*627 FILLER_3_420
*628 FILLER_3_427
*629 FILLER_3_429
*630 FILLER_4_0
*631 FILLER_4_7
*632 FILLER_4_14
*633 FILLER_4_21
*634 FILLER_4_28
*635 FILLER_4_35
*636 FILLER_4_42
*637 FILLER_4_49
*638 FILLER_4_56
*639 FILLER_4_63
*640 FILLER_4_70
*641 FILLER_4_77
*642 FILLER_4_84
*643 FILLER_4_91
*644 FILLER_4_98
*645 FILLER_4_105
*646 FILLER_4_112
*647 FILLER_4_119
*648 FILLER_4_126
*649 FILLER_4_133
*650 FILLER_4_140
*651 FILLER_4_147
*652 FILLER_4_154
*653 FILLER_4_161
*654 FILLER_4_168
*655 FILLER_4_175
*656 FILLER_4_182
*657 FILLER_4_189
*658 FILLER_4_196
*659 FILLER_4_203
*660 FILLER_4_210
*661 FILLER_4_217
*662 FILLER_4_224
*663 FILLER_4_231
*664 FILLER_4_238
*665 FILLER_4_245
*666 FILLER_4_252
*667 FILLER_4_259
*668 FILLER_4_266
*669 FILLER_4_273
*670 FILLER_4_280
*671 FILLER_4_287
*672 FILLER_4_294
*673 FILLER_4_301
*674 FILLER_4_308
*675 FILLER_4_315
*676 FILLER_4_322
*677 FILLER_4_329
*678 FILLER_4_336
*679 FILLER_4_343
*680 FILLER_4_350
*681 FILLER_4_357
*682 FILLER_4_364
*683 FILLER_4_371
*684 FILLER_4_378
*685 FILLER_4_385
*686 FILLER_4_392
*687 FILLER_4_399
*688 FILLER_4_406
*689 FILLER_4_413
*690 FILLER_4_420
*691 FILLER_4_427
*692 FILLER_4_429
*693 FILLER_5_0
*694 FILLER_5_7
*695 FILLER_5_14
*696 FILLER_5_21
*697 FILLER_5_28
*698 FILLER_5_35
*699 FILLER_5_42
*700 FILLER_5_49
*701 FILLER_5_56
*702 FILLER_5_63
*703 FILLER_5_70
*704 FILLER_5_77
*705 FILLER_5_84
*706 FILLER_5_91
*707 FILLER_5_98
*708 FILLER_5_105
*709 FILLER_5_112
*710 FILLER_5_119
*711 FILLER_5_126
*712 FILLER_5_133
*713 FILLER_5_140
*714 FILLER_5_147
*715 FILLER_5_154
*716 FILLER_5_161
*717 FILLER_5_168
*718 FILLER_5_175
*719 FILLER_5_182
*720 FILLER_5_189
*721 FILLER_5_196
*722 FILLER_5_203
*723 FILLER_5_210
*724 FILLER_5_217
*725 FILLER_5_224
*726 FILLER_5_231
*727 FILLER_5_238
*728 FILLER_5_245
*729 FILLER_5_252
*730 FILLER_5_259
*731 FILLER_5_266
*732 FILLER_5_273
*733 FILLER_5_280
*734 FILLER_5_287
*735 FILLER_5_294
*736 FILLER_5_301
*737 FILLER_5_308
*738 FILLER_5_315
*739 FILLER_5_322
*740 FILLER_5_329
*741 FILLER_5_336
*742 FILLER_5_343
*743 FILLER_5_350
*744 FILLER_5_357
*745 FILLER_5_364
*746 FILLER_5_371
*747 FILLER_5_378
*748 FILLER_5_385
*749 FILLER_5_392
*750 FILLER_5_399
*751 FILLER_5_406
*752 FILLER_5_413
*753 FILLER_5_420
*754 FILLER_5_427
*755 FILLER_5_429
*756 FILLER_6_0
*757 FILLER_6_7
*758 FILLER_6_14
*759 FILLER_6_21
*760 FILLER_6_28
*761 FILLER_6_35
*762 FILLER_6_42
*763 FILLER_6_49
*764 FILLER_6_56
*765 FILLER_6_63
*766 FILLER_6_70
*767 FILLER_6_77
*768 FILLER_6_84
*769 FILLER_6_91
*770 FILLER_6_98
*771 FILLER_6_105
*772 FILLER_6_112
*773 FILLER_6_119
*774 FILLER_6_126
*775 FILLER_6_133
*776 FILLER_6_140
*777 FILLER_6_147
*778 FILLER_6_154
*779 FILLER_6_161
*780 FILLER_6_168
*781 FILLER_6_175
*782 FILLER_6_182
*783 FILLER_6_189
*784 FILLER_6_196
*785 FILLER_6_203
*786 FILLER_6_210
*787 FILLER_6_217
*788 FILLER_6_224
*789 FILLER_6_231
*790 FILLER_6_238
*791 FILLER_6_245
*792 FILLER_6_252
*793 FILLER_6_259
*794 FILLER_6_266
*795 FILLER_6_273
*796 FILLER_6_280
*797 FILLER_6_287
*798 FILLER_6_294
*799 FILLER_6_301
*800 FILLER_6_308
*801 FILLER_6_315
*802 FILLER_6_322
*803 FILLER_6_329
*804 FILLER_6_336
*805 FILLER_6_343
*806 FILLER_6_350
*807 FILLER_6_357
*808 FILLER_6_364
*809 FILLER_6_371
*810 FILLER_6_378
*811 FILLER_6_385
*812 FILLER_6_392
*813 FILLER_6_399
*814 FILLER_6_406
*815 FILLER_6_413
*816 FILLER_6_420
*817 FILLER_6_427
*818 FILLER_6_429
*819 FILLER_7_0
*820 FILLER_7_7
*821 FILLER_7_14
*822 FILLER_7_21
*823 FILLER_7_28
*824 FILLER_7_35
*825 FILLER_7_42
*826 FILLER_7_49
*827 FILLER_7_56
*828 FILLER_7_63
*829 FILLER_7_70
*830 FILLER_7_77
*831 FILLER_7_84
*832 FILLER_7_91
*833 FILLER_7_98
*834 FILLER_7_105
*835 FILLER_7_112
*836 FILLER_7_119
*837 FILLER_7_126
*838 FILLER_7_133
*839 FILLER_7_140
*840 FILLER_7_147
*841 FILLER_7_154
*842 FILLER_7_161
*843 FILLER_7_168
*844 FILLER_7_175
*845 FILLER_7_182
*846 FILLER_7_189
*847 FILLER_7_196
*848 FILLER_7_203
*849 FILLER_7_210
*850 FILLER_7_217
*851 FILLER_7_224
*852 FILLER_7_231
*853 FILLER_7_238
*854 FILLER_7_245
*855 FILLER_7_252
*856 FILLER_7_259
*857 FILLER_7_266
*858 FILLER_7_273
*859 FILLER_7_280
*860 FILLER_7_287
*861 FILLER_7_294
*862 FILLER_7_301
*863 FILLER_7_308
*864 FILLER_7_315
*865 FILLER_7_322
*866 FILLER_7_329
*867 FILLER_7_336
*868 FILLER_7_343
*869 FILLER_7_350
*870 FILLER_7_357
*871 FILLER_7_364
*872 FILLER_7_371
*873 FILLER_7_378
*874 FILLER_7_385
*875 FILLER_7_392
*876 FILLER_7_399
*877 FILLER_7_406
*878 FILLER_7_413
*879 FILLER_7_420
*880 FILLER_7_427
*881 FILLER_7_429
*882 FILLER_8_0
*883 FILLER_8_7
*884 FILLER_8_14
*885 FILLER_8_21
*886 FILLER_8_28
*887 FILLER_8_35
*888 FILLER_8_42
*889 FILLER_8_49
*890 FILLER_8_56
*891 FILLER_8_63
*892 FILLER_8_70
*893 FILLER_8_77
*894 FILLER_8_84
*895 FILLER_8_91
*896 FILLER_8_98
*897 FILLER_8_105
*898 FILLER_8_112
*899 FILLER_8_119
*900 FILLER_8_126
*901 FILLER_8_133
*902 FILLER_8_140
*903 FILLER_8_147
*904 FILLER_8_154
*905 FILLER_8_161
*906 FILLER_8_168
*907 FILLER_8_175
*908 FILLER_8_182
*909 FILLER_8_189
*910 FILLER_8_196
*911 FILLER_8_203
*912 FILLER_8_210
*913 FILLER_8_217
*914 FILLER_8_224
*915 FILLER_8_231
*916 FILLER_8_238
*917 FILLER_8_245
*918 FILLER_8_252
*919 FILLER_8_259
*920 FILLER_8_266
*921 FILLER_8_273
*922 FILLER_8_280
*923 FILLER_8_287
*924 FILLER_8_294
*925 FILLER_8_301
*926 FILLER_8_308
*927 FILLER_8_315
*928 FILLER_8_322
*929 FILLER_8_329
*930 FILLER_8_336
*931 FILLER_8_343
*932 FILLER_8_350
*933 FILLER_8_357
*934 FILLER_8_364
*935 FILLER_8_371
*936 FILLER_8_378
*937 FILLER_8_385
*938 FILLER_8_392
*939 FILLER_8_399
*940 FILLER_8_406
*941 FILLER_8_413
*942 FILLER_8_420
*943 FILLER_8_427
*944 FILLER_8_429
*945 FILLER_9_0
*946 FILLER_9_7
*947 FILLER_9_14
*948 FILLER_9_21
*949 FILLER_9_28
*950 FILLER_9_35
*951 FILLER_9_42
*952 FILLER_9_49
*953 FILLER_9_56
*954 FILLER_9_63
*955 FILLER_9_70
*956 FILLER_9_77
*957 FILLER_9_84
*958 FILLER_9_91
*959 FILLER_9_98
*960 FILLER_9_105
*961 FILLER_9_112
*962 FILLER_9_119
*963 FILLER_9_126
*964 FILLER_9_133
*965 FILLER_9_140
*966 FILLER_9_147
*967 FILLER_9_154
*968 FILLER_9_161
*969 FILLER_9_168
*970 FILLER_9_175
*971 FILLER_9_182
*972 FILLER_9_189
*973 FILLER_9_196
*974 FILLER_9_203
*975 FILLER_9_210
*976 FILLER_9_217
*977 FILLER_9_224
*978 FILLER_9_231
*979 FILLER_9_238
*980 FILLER_9_245
*981 FILLER_9_252
*982 FILLER_9_259
*983 FILLER_9_266
*984 FILLER_9_273
*985 FILLER_9_280
*986 FILLER_9_287
*987 FILLER_9_294
*988 FILLER_9_301
*989 FILLER_9_308
*990 FILLER_9_315
*991 FILLER_9_322
*992 FILLER_9_329
*993 FILLER_9_336
*994 FILLER_9_343
*995 FILLER_9_350
*996 FILLER_9_357
*997 FILLER_9_364
*998 FILLER_9_371
*999 FILLER_9_378
*1000 FILLER_9_385
*1001 FILLER_9_392
*1002 FILLER_9_399
*1003 FILLER_9_406
*1004 FILLER_9_413
*1005 FILLER_9_420
*1006 FILLER_9_427
*1007 FILLER_9_429
*1008 FILLER_10_0
*1009 FILLER_10_7
*1010 FILLER_10_14
*1011 FILLER_10_21
*1012 FILLER_10_28
*1013 FILLER_10_35
*1014 FILLER_10_42
*1015 FILLER_10_49
*1016 FILLER_10_56
*1017 FILLER_10_63
*1018 FILLER_10_70
*1019 FILLER_10_77
*1020 FILLER_10_84
*1021 FILLER_10_91
*1022 FILLER_10_98
*1023 FILLER_10_105
*1024 FILLER_10_112
*1025 FILLER_10_119
*1026 FILLER_10_126
*1027 FILLER_10_133
*1028 FILLER_10_140
*1029 FILLER_10_147
*1030 FILLER_10_154
*1031 FILLER_10_161
*1032 FILLER_10_168
*1033 FILLER_10_175
*1034 FILLER_10_182
*1035 FILLER_10_189
*1036 FILLER_10_196
*1037 FILLER_10_203
*1038 FILLER_10_210
*1039 FILLER_10_217
*1040 FILLER_10_224
*1041 FILLER_10_231
*1042 FILLER_10_238
*1043 FILLER_10_245
*1044 FILLER_10_252
*1045 FILLER_10_259
*1046 FILLER_10_266
*1047 FILLER_10_273
*1048 FILLER_10_280
*1049 FILLER_10_287
*1050 FILLER_10_294
*1051 FILLER_10_301
*1052 FILLER_10_308
*1053 FILLER_10_315
*1054 FILLER_10_322
*1055 FILLER_10_329
*1056 FILLER_10_336
*1057 FILLER_10_343
*1058 FILLER_10_350
*1059 FILLER_10_357
*1060 FILLER_10_364
*1061 FILLER_10_371
*1062 FILLER_10_378
*1063 FILLER_10_385
*1064 FILLER_10_392
*1065 FILLER_10_399
*1066 FILLER_10_406
*1067 FILLER_10_413
*1068 FILLER_10_420
*1069 FILLER_10_427
*1070 FILLER_10_429
*1071 FILLER_11_0
*1072 FILLER_11_7
*1073 FILLER_11_14
*1074 FILLER_11_21
*1075 FILLER_11_28
*1076 FILLER_11_35
*1077 FILLER_11_42
*1078 FILLER_11_49
*1079 FILLER_11_56
*1080 FILLER_11_63
*1081 FILLER_11_70
*1082 FILLER_11_77
*1083 FILLER_11_84
*1084 FILLER_11_91
*1085 FILLER_11_98
*1086 FILLER_11_105
*1087 FILLER_11_112
*1088 FILLER_11_119
*1089 FILLER_11_126
*1090 FILLER_11_133
*1091 FILLER_11_140
*1092 FILLER_11_147
*1093 FILLER_11_154
*1094 FILLER_11_161
*1095 FILLER_11_168
*1096 FILLER_11_175
*1097 FILLER_11_182
*1098 FILLER_11_189
*1099 FILLER_11_196
*1100 FILLER_11_203
*1101 FILLER_11_210
*1102 FILLER_11_217
*1103 FILLER_11_224
*1104 FILLER_11_231
*1105 FILLER_11_238
*1106 FILLER_11_245
*1107 FILLER_11_252
*1108 FILLER_11_259
*1109 FILLER_11_266
*1110 FILLER_11_273
*1111 FILLER_11_280
*1112 FILLER_11_287
*1113 FILLER_11_294
*1114 FILLER_11_301
*1115 FILLER_11_308
*1116 FILLER_11_315
*1117 FILLER_11_322
*1118 FILLER_11_329
*1119 FILLER_11_336
*1120 FILLER_11_343
*1121 FILLER_11_350
*1122 FILLER_11_357
*1123 FILLER_11_364
*1124 FILLER_11_371
*1125 FILLER_11_378
*1126 FILLER_11_385
*1127 FILLER_11_392
*1128 FILLER_11_399
*1129 FILLER_11_406
*1130 FILLER_11_413
*1131 FILLER_11_420
*1132 FILLER_11_427
*1133 FILLER_11_429
*1134 FILLER_12_0
*1135 FILLER_12_7
*1136 FILLER_12_14
*1137 FILLER_12_21
*1138 FILLER_12_28
*1139 FILLER_12_35
*1140 FILLER_12_42
*1141 FILLER_12_49
*1142 FILLER_12_56
*1143 FILLER_12_63
*1144 FILLER_12_70
*1145 FILLER_12_77
*1146 FILLER_12_84
*1147 FILLER_12_91
*1148 FILLER_12_98
*1149 FILLER_12_105
*1150 FILLER_12_112
*1151 FILLER_12_119
*1152 FILLER_12_126
*1153 FILLER_12_133
*1154 FILLER_12_140
*1155 FILLER_12_147
*1156 FILLER_12_154
*1157 FILLER_12_161
*1158 FILLER_12_168
*1159 FILLER_12_175
*1160 FILLER_12_182
*1161 FILLER_12_189
*1162 FILLER_12_196
*1163 FILLER_12_203
*1164 FILLER_12_210
*1165 FILLER_12_217
*1166 FILLER_12_224
*1167 FILLER_12_231
*1168 FILLER_12_238
*1169 FILLER_12_245
*1170 FILLER_12_252
*1171 FILLER_12_259
*1172 FILLER_12_266
*1173 FILLER_12_273
*1174 FILLER_12_280
*1175 FILLER_12_287
*1176 FILLER_12_294
*1177 FILLER_12_301
*1178 FILLER_12_308
*1179 FILLER_12_315
*1180 FILLER_12_322
*1181 FILLER_12_329
*1182 FILLER_12_336
*1183 FILLER_12_343
*1184 FILLER_12_350
*1185 FILLER_12_357
*1186 FILLER_12_364
*1187 FILLER_12_371
*1188 FILLER_12_378
*1189 FILLER_12_385
*1190 FILLER_12_392
*1191 FILLER_12_399
*1192 FILLER_12_406
*1193 FILLER_12_413
*1194 FILLER_12_420
*1195 FILLER_12_427
*1196 FILLER_12_429
*1197 FILLER_13_0
*1198 FILLER_13_7
*1199 FILLER_13_14
*1200 FILLER_13_21
*1201 FILLER_13_28
*1202 FILLER_13_35
*1203 FILLER_13_42
*1204 FILLER_13_49
*1205 FILLER_13_56
*1206 FILLER_13_63
*1207 FILLER_13_70
*1208 FILLER_13_77
*1209 FILLER_13_84
*1210 FILLER_13_91
*1211 FILLER_13_98
*1212 FILLER_13_105
*1213 FILLER_13_112
*1214 FILLER_13_119
*1215 FILLER_13_126
*1216 FILLER_13_133
*1217 FILLER_13_140
*1218 FILLER_13_147
*1219 FILLER_13_154
*1220 FILLER_13_161
*1221 FILLER_13_168
*1222 FILLER_13_175
*1223 FILLER_13_182
*1224 FILLER_13_189
*1225 FILLER_13_196
*1226 FILLER_13_203
*1227 FILLER_13_210
*1228 FILLER_13_217
*1229 FILLER_13_224
*1230 FILLER_13_231
*1231 FILLER_13_238
*1232 FILLER_13_245
*1233 FILLER_13_252
*1234 FILLER_13_259
*1235 FILLER_13_266
*1236 FILLER_13_273
*1237 FILLER_13_280
*1238 FILLER_13_287
*1239 FILLER_13_294
*1240 FILLER_13_301
*1241 FILLER_13_308
*1242 FILLER_13_315
*1243 FILLER_13_322
*1244 FILLER_13_329
*1245 FILLER_13_336
*1246 FILLER_13_343
*1247 FILLER_13_350
*1248 FILLER_13_357
*1249 FILLER_13_364
*1250 FILLER_13_371
*1251 FILLER_13_378
*1252 FILLER_13_385
*1253 FILLER_13_392
*1254 FILLER_13_399
*1255 FILLER_13_406
*1256 FILLER_13_413
*1257 FILLER_13_420
*1258 FILLER_13_427
*1259 FILLER_13_429
*1260 FILLER_14_0
*1261 FILLER_14_7
*1262 FILLER_14_14
*1263 FILLER_14_21
*1264 FILLER_14_28
*1265 FILLER_14_35
*1266 FILLER_14_42
*1267 FILLER_14_49
*1268 FILLER_14_56
*1269 FILLER_14_63
*1270 FILLER_14_70
*1271 FILLER_14_77
*1272 FILLER_14_84
*1273 FILLER_14_91
*1274 FILLER_14_98
*1275 FILLER_14_105
*1276 FILLER_14_112
*1277 FILLER_14_119
*1278 FILLER_14_126
*1279 FILLER_14_133
*1280 FILLER_14_140
*1281 FILLER_14_147
*1282 FILLER_14_154
*1283 FILLER_14_161
*1284 FILLER_14_168
*1285 FILLER_14_175
*1286 FILLER_14_182
*1287 FILLER_14_189
*1288 FILLER_14_196
*1289 FILLER_14_203
*1290 FILLER_14_210
*1291 FILLER_14_217
*1292 FILLER_14_224
*1293 FILLER_14_231
*1294 FILLER_14_238
*1295 FILLER_14_245
*1296 FILLER_14_252
*1297 FILLER_14_259
*1298 FILLER_14_266
*1299 FILLER_14_273
*1300 FILLER_14_280
*1301 FILLER_14_287
*1302 FILLER_14_294
*1303 FILLER_14_301
*1304 FILLER_14_308
*1305 FILLER_14_315
*1306 FILLER_14_322
*1307 FILLER_14_329
*1308 FILLER_14_336
*1309 FILLER_14_343
*1310 FILLER_14_350
*1311 FILLER_14_357
*1312 FILLER_14_364
*1313 FILLER_14_371
*1314 FILLER_14_378
*1315 FILLER_14_385
*1316 FILLER_14_392
*1317 FILLER_14_399
*1318 FILLER_14_406
*1319 FILLER_14_413
*1320 FILLER_14_420
*1321 FILLER_14_427
*1322 FILLER_14_429
*1323 FILLER_15_0
*1324 FILLER_15_7
*1325 FILLER_15_14
*1326 FILLER_15_21
*1327 FILLER_15_28
*1328 FILLER_15_35
*1329 FILLER_15_42
*1330 FILLER_15_49
*1331 FILLER_15_56
*1332 FILLER_15_63
*1333 FILLER_15_70
*1334 FILLER_15_77
*1335 FILLER_15_84
*1336 FILLER_15_91
*1337 FILLER_15_98
*1338 FILLER_15_105
*1339 FILLER_15_112
*1340 FILLER_15_119
*1341 FILLER_15_126
*1342 FILLER_15_133
*1343 FILLER_15_140
*1344 FILLER_15_147
*1345 FILLER_15_154
*1346 FILLER_15_161
*1347 FILLER_15_168
*1348 FILLER_15_175
*1349 FILLER_15_182
*1350 FILLER_15_189
*1351 FILLER_15_196
*1352 FILLER_15_203
*1353 FILLER_15_210
*1354 FILLER_15_217
*1355 FILLER_15_224
*1356 FILLER_15_231
*1357 FILLER_15_238
*1358 FILLER_15_245
*1359 FILLER_15_252
*1360 FILLER_15_259
*1361 FILLER_15_266
*1362 FILLER_15_273
*1363 FILLER_15_280
*1364 FILLER_15_287
*1365 FILLER_15_294
*1366 FILLER_15_301
*1367 FILLER_15_308
*1368 FILLER_15_315
*1369 FILLER_15_322
*1370 FILLER_15_329
*1371 FILLER_15_336
*1372 FILLER_15_343
*1373 FILLER_15_350
*1374 FILLER_15_357
*1375 FILLER_15_364
*1376 FILLER_15_371
*1377 FILLER_15_378
*1378 FILLER_15_385
*1379 FILLER_15_392
*1380 FILLER_15_399
*1381 FILLER_15_406
*1382 FILLER_15_413
*1383 FILLER_15_420
*1384 FILLER_15_427
*1385 FILLER_15_429
*1386 FILLER_16_0
*1387 FILLER_16_7
*1388 FILLER_16_14
*1389 FILLER_16_21
*1390 FILLER_16_28
*1391 FILLER_16_35
*1392 FILLER_16_42
*1393 FILLER_16_49
*1394 FILLER_16_56
*1395 FILLER_16_63
*1396 FILLER_16_70
*1397 FILLER_16_77
*1398 FILLER_16_84
*1399 FILLER_16_91
*1400 FILLER_16_98
*1401 FILLER_16_105
*1402 FILLER_16_112
*1403 FILLER_16_119
*1404 FILLER_16_126
*1405 FILLER_16_133
*1406 FILLER_16_140
*1407 FILLER_16_147
*1408 FILLER_16_154
*1409 FILLER_16_161
*1410 FILLER_16_168
*1411 FILLER_16_175
*1412 FILLER_16_182
*1413 FILLER_16_189
*1414 FILLER_16_196
*1415 FILLER_16_203
*1416 FILLER_16_210
*1417 FILLER_16_217
*1418 FILLER_16_224
*1419 FILLER_16_231
*1420 FILLER_16_238
*1421 FILLER_16_245
*1422 FILLER_16_252
*1423 FILLER_16_259
*1424 FILLER_16_266
*1425 FILLER_16_273
*1426 FILLER_16_280
*1427 FILLER_16_287
*1428 FILLER_16_294
*1429 FILLER_16_301
*1430 FILLER_16_308
*1431 FILLER_16_315
*1432 FILLER_16_322
*1433 FILLER_16_329
*1434 FILLER_16_336
*1435 FILLER_16_343
*1436 FILLER_16_350
*1437 FILLER_16_357
*1438 FILLER_16_364
*1439 FILLER_16_371
*1440 FILLER_16_378
*1441 FILLER_16_385
*1442 FILLER_16_392
*1443 FILLER_16_399
*1444 FILLER_16_406
*1445 FILLER_16_413
*1446 FILLER_16_420
*1447 FILLER_16_427
*1448 FILLER_16_429
*1449 FILLER_17_0
*1450 FILLER_17_7
*1451 FILLER_17_14
*1452 FILLER_17_21
*1453 FILLER_17_28
*1454 FILLER_17_35
*1455 FILLER_17_42
*1456 FILLER_17_49
*1457 FILLER_17_56
*1458 FILLER_17_63
*1459 FILLER_17_70
*1460 FILLER_17_77
*1461 FILLER_17_84
*1462 FILLER_17_91
*1463 FILLER_17_98
*1464 FILLER_17_105
*1465 FILLER_17_112
*1466 FILLER_17_119
*1467 FILLER_17_126
*1468 FILLER_17_133
*1469 FILLER_17_140
*1470 FILLER_17_147
*1471 FILLER_17_154
*1472 FILLER_17_161
*1473 FILLER_17_168
*1474 FILLER_17_175
*1475 FILLER_17_182
*1476 FILLER_17_189
*1477 FILLER_17_196
*1478 FILLER_17_203
*1479 FILLER_17_210
*1480 FILLER_17_217
*1481 FILLER_17_224
*1482 FILLER_17_231
*1483 FILLER_17_238
*1484 FILLER_17_245
*1485 FILLER_17_252
*1486 FILLER_17_259
*1487 FILLER_17_266
*1488 FILLER_17_273
*1489 FILLER_17_280
*1490 FILLER_17_287
*1491 FILLER_17_294
*1492 FILLER_17_301
*1493 FILLER_17_308
*1494 FILLER_17_315
*1495 FILLER_17_322
*1496 FILLER_17_329
*1497 FILLER_17_336
*1498 FILLER_17_343
*1499 FILLER_17_350
*1500 FILLER_17_357
*1501 FILLER_17_364
*1502 FILLER_17_371
*1503 FILLER_17_378
*1504 FILLER_17_385
*1505 FILLER_17_392
*1506 FILLER_17_399
*1507 FILLER_17_406
*1508 FILLER_17_413
*1509 FILLER_17_420
*1510 FILLER_17_427
*1511 FILLER_17_429
*1512 FILLER_18_0
*1513 FILLER_18_7
*1514 FILLER_18_14
*1515 FILLER_18_21
*1516 FILLER_18_28
*1517 FILLER_18_35
*1518 FILLER_18_42
*1519 FILLER_18_49
*1520 FILLER_18_56
*1521 FILLER_18_63
*1522 FILLER_18_70
*1523 FILLER_18_77
*1524 FILLER_18_84
*1525 FILLER_18_91
*1526 FILLER_18_98
*1527 FILLER_18_105
*1528 FILLER_18_112
*1529 FILLER_18_119
*1530 FILLER_18_126
*1531 FILLER_18_133
*1532 FILLER_18_140
*1533 FILLER_18_147
*1534 FILLER_18_154
*1535 FILLER_18_161
*1536 FILLER_18_168
*1537 FILLER_18_175
*1538 FILLER_18_182
*1539 FILLER_18_189
*1540 FILLER_18_196
*1541 FILLER_18_203
*1542 FILLER_18_210
*1543 FILLER_18_217
*1544 FILLER_18_224
*1545 FILLER_18_231
*1546 FILLER_18_238
*1547 FILLER_18_245
*1548 FILLER_18_252
*1549 FILLER_18_259
*1550 FILLER_18_266
*1551 FILLER_18_273
*1552 FILLER_18_280
*1553 FILLER_18_287
*1554 FILLER_18_294
*1555 FILLER_18_301
*1556 FILLER_18_308
*1557 FILLER_18_315
*1558 FILLER_18_322
*1559 FILLER_18_329
*1560 FILLER_18_336
*1561 FILLER_18_343
*1562 FILLER_18_350
*1563 FILLER_18_357
*1564 FILLER_18_364
*1565 FILLER_18_371
*1566 FILLER_18_378
*1567 FILLER_18_385
*1568 FILLER_18_392
*1569 FILLER_18_399
*1570 FILLER_18_406
*1571 FILLER_18_413
*1572 FILLER_18_420
*1573 FILLER_18_427
*1574 FILLER_18_429
*1575 FILLER_19_0
*1576 FILLER_19_7
*1577 FILLER_19_14
*1578 FILLER_19_21
*1579 FILLER_19_28
*1580 FILLER_19_35
*1581 FILLER_19_42
*1582 FILLER_19_49
*1583 FILLER_19_56
*1584 FILLER_19_63
*1585 FILLER_19_70
*1586 FILLER_19_77
*1587 FILLER_19_84
*1588 FILLER_19_91
*1589 FILLER_19_98
*1590 FILLER_19_105
*1591 FILLER_19_112
*1592 FILLER_19_119
*1593 FILLER_19_126
*1594 FILLER_19_133
*1595 FILLER_19_140
*1596 FILLER_19_147
*1597 FILLER_19_154
*1598 FILLER_19_161
*1599 FILLER_19_168
*1600 FILLER_19_175
*1601 FILLER_19_182
*1602 FILLER_19_189
*1603 FILLER_19_196
*1604 FILLER_19_203
*1605 FILLER_19_210
*1606 FILLER_19_217
*1607 FILLER_19_224
*1608 FILLER_19_231
*1609 FILLER_19_238
*1610 FILLER_19_245
*1611 FILLER_19_252
*1612 FILLER_19_259
*1613 FILLER_19_266
*1614 FILLER_19_273
*1615 FILLER_19_280
*1616 FILLER_19_287
*1617 FILLER_19_294
*1618 FILLER_19_301
*1619 FILLER_19_308
*1620 FILLER_19_315
*1621 FILLER_19_322
*1622 FILLER_19_329
*1623 FILLER_19_336
*1624 FILLER_19_343
*1625 FILLER_19_350
*1626 FILLER_19_357
*1627 FILLER_19_364
*1628 FILLER_19_371
*1629 FILLER_19_378
*1630 FILLER_19_385
*1631 FILLER_19_392
*1632 FILLER_19_399
*1633 FILLER_19_406
*1634 FILLER_19_413
*1635 FILLER_19_420
*1636 FILLER_19_427
*1637 FILLER_19_429
*1638 FILLER_20_0
*1639 FILLER_20_7
*1640 FILLER_20_14
*1641 FILLER_20_21
*1642 FILLER_20_28
*1643 FILLER_20_35
*1644 FILLER_20_42
*1645 FILLER_20_49
*1646 FILLER_20_56
*1647 FILLER_20_63
*1648 FILLER_20_70
*1649 FILLER_20_77
*1650 FILLER_20_84
*1651 FILLER_20_91
*1652 FILLER_20_98
*1653 FILLER_20_105
*1654 FILLER_20_112
*1655 FILLER_20_119