*SPEF "ieee 1481-1999"
*DESIGN "tt_um_urish_sram_test"
*DATE "20:35:29 Monday November 04, 2024"
*VENDOR "The OpenROAD Project"
*PROGRAM "OpenROAD"
*VERSION "v2.0-16649-g40811f37f"
*DESIGN_FLOW "NAME_SCOPE LOCAL" "PIN_CAP NONE"
*DIVIDER /
*DELIMITER :
*BUS_DELIMITER []
*T_UNIT 1 NS
*C_UNIT 1 PF
*R_UNIT 1 OHM
*L_UNIT 1 HENRY

*NAME_MAP
*1 _00_
*2 _01_
*3 _02_
*4 _03_
*5 _04_
*6 _05_
*7 _06_
*8 _07_
*9 _08_
*10 _09_
*11 clknet_0_clk
*12 net77
*13 addr\[6\]
*14 addr\[7\]
*15 addr\[8\]
*16 addr\[9\]
*17 addr_high_reg\[0\]
*18 addr_high_reg\[1\]
*19 addr_high_reg\[2\]
*20 addr_high_reg\[3\]
*21 clk
*22 ena
*23 rst_n
*24 ui_in[0]
*25 ui_in[1]
*26 ui_in[2]
*27 ui_in[3]
*28 ui_in[4]
*29 ui_in[5]
*30 ui_in[6]
*31 ui_in[7]
*32 uio_in[0]
*33 uio_in[1]
*34 uio_in[2]
*35 uio_in[3]
*36 uio_in[4]
*37 uio_in[5]
*38 uio_in[6]
*39 uio_in[7]
*40 uio_oe[0]
*41 uio_oe[1]
*42 uio_oe[2]
*43 uio_oe[3]
*44 uio_oe[4]
*45 uio_oe[5]
*46 uio_oe[6]
*47 uio_oe[7]
*48 uio_out[0]
*49 uio_out[1]
*50 uio_out[2]
*51 uio_out[3]
*52 uio_out[4]
*53 uio_out[5]
*54 uio_out[6]
*55 uio_out[7]
*56 uo_out[0]
*57 uo_out[1]
*58 uo_out[2]
*59 uo_out[3]
*60 uo_out[4]
*61 uo_out[5]
*62 uo_out[6]
*63 uo_out[7]
*64 net1
*65 net2
*66 net3
*67 net4
*70 net5
*71 net6
*72 net7
*73 net8
*74 net9
*75 net10
*76 net11
*77 net12
*78 net13
*79 net14
*80 net15
*81 net16
*82 net17
*83 net18
*84 net19
*85 net20
*86 net21
*87 net22
*88 net23
*89 net24
*90 net25
*91 net26
*92 net27
*93 net28
*94 net29
*95 net30
*96 net31
*97 net32
*98 net33
*99 net34
*100 net35
*101 net36
*102 net37
*103 net38
*104 net39
*105 net40
*106 net41
*107 net42
*108 net43
*109 net44
*110 net45
*111 net46
*112 net47
*113 net48
*114 net49
*115 net50
*116 net51
*117 net52
*118 net53
*119 net54
*120 net55
*121 net56
*122 net57
*123 net58
*124 net59
*125 net60
*126 net61
*127 net62
*128 net63
*129 net64
*130 net65
*131 net66
*132 net67
*133 net68
*134 net69
*135 net70
*136 net71
*137 net72
*138 net73
*139 net74
*140 net75
*141 net76
*142 net78
*143 net79
*144 net80
*145 net81
*146 net82
*147 net83
*148 net84
*149 net85
*150 net86
*151 net87
*152 net88
*153 net89
*154 clknet_1_0__leaf_clk
*155 clknet_1_1__leaf_clk
*156 _12_
*157 _13_
*158 _14_
*159 _15_
*160 _16_
*161 _17_
*162 _18_
*163 _19_
*164 _20_
*165 _21_
*166 clkbuf_0_clk
*167 addr_high_reg\[0\]\$_SDFF_PN0__73
*168 _24_
*169 _25_
*170 _26_
*171 _27_
*172 _28_
*173 _29_
*174 _30_
*175 _31_
*176 _32_
*177 _33_
*178 _34_
*179 _35_
*180 _36_
*181 _37_
*182 _38_
*183 _39_
*184 addr_high_reg\[0\]\$_SDFF_PN0_
*185 addr_high_reg\[1\]\$_SDFF_PN0_
*186 addr_high_reg\[2\]\$_SDFF_PN0_
*187 addr_high_reg\[3\]\$_SDFF_PN0_
*188 sram
*189 hold1
*190 hold2
*191 hold3
*192 hold4
*193 input1
*194 input2
*195 input3
*196 input4
*197 input5
*198 input6
*199 input7
*200 input8
*201 input9
*202 input10
*203 input11
*204 input12
*205 input13
*206 input14
*207 input15
*208 input16
*209 input17
*210 output18
*211 output19
*212 output20
*213 output21
*214 output22
*215 output23
*216 output24
*217 output25
*218 _24__26
*219 _25__27
*220 _26__28
*221 _27__29
*222 _28__30
*223 _29__31
*224 _30__32
*225 _31__33
*226 _32__34
*227 _33__35
*228 _34__36
*229 _35__37
*230 _36__38
*231 _37__39
*232 _38__40
*233 _39__41
*234 sram_42
*235 sram_43
*236 sram_44
*237 sram_45
*238 sram_46
*239 sram_47
*240 sram_48
*241 sram_49
*242 sram_50
*243 sram_51
*244 sram_52
*245 sram_53
*246 sram_54
*247 sram_55
*248 sram_56
*249 sram_57
*250 sram_58
*251 sram_59
*252 sram_60
*253 sram_61
*254 sram_62
*255 sram_63
*256 sram_64
*257 sram_65
*258 sram_66
*259 sram_67
*260 sram_68
*261 sram_69
*262 sram_70
*263 sram_71
*264 sram_72
*265 addr_high_reg\[1\]\$_SDFF_PN0__74
*266 addr_high_reg\[2\]\$_SDFF_PN0__75
*267 addr_high_reg\[3\]\$_SDFF_PN0__76
*268 sram_77
*269 sram_78
*270 sram_79
*271 sram_80
*272 sram_81
*273 sram_82
*274 sram_83
*275 sram_84
*276 sram_85
*277 clkbuf_1_0__f_clk
*278 clkbuf_1_1__f_clk
*279 clkload0
*280 ANTENNA_1
*281 ANTENNA_2
*282 ANTENNA_3
*283 ANTENNA_4
*284 ANTENNA_5
*285 ANTENNA_6
*286 ANTENNA_7
*287 ANTENNA_8
*288 ANTENNA_9
*289 ANTENNA_10
*290 ANTENNA_11
*291 ANTENNA_12
*292 ANTENNA_13
*293 ANTENNA_14
*294 ANTENNA_15
*295 ANTENNA_16
*296 ANTENNA_17
*297 ANTENNA_18
*298 ANTENNA_19
*299 ANTENNA_20
*300 ANTENNA_21
*301 ANTENNA_22
*302 ANTENNA_23
*303 ANTENNA_24
*304 ANTENNA_25
*305 ANTENNA_26
*306 ANTENNA_27
*307 ANTENNA_28
*308 ANTENNA_29
*309 ANTENNA_30
*310 ANTENNA_31
*311 ANTENNA_32
*312 ANTENNA_33
*313 ANTENNA_34
*314 ANTENNA_35
*315 ANTENNA_36
*316 ANTENNA_37
*317 ANTENNA_38
*318 ANTENNA_39
*319 ANTENNA_40
*320 ANTENNA_41
*321 ANTENNA_42
*322 ANTENNA_43
*323 ANTENNA_44
*324 ANTENNA_45
*325 ANTENNA_46
*326 ANTENNA_47
*327 ANTENNA_48
*328 ANTENNA_49
*329 ANTENNA_50
*330 ANTENNA_51
*331 ANTENNA_52
*332 ANTENNA_53
*333 ANTENNA_54
*334 ANTENNA_55
*335 ANTENNA_56
*336 ANTENNA_57
*337 ANTENNA_58
*338 ANTENNA_59
*339 ANTENNA_60
*340 ANTENNA_61
*341 ANTENNA_62
*342 ANTENNA_63
*343 ANTENNA_64
*344 ANTENNA_65
*345 ANTENNA_66
*346 ANTENNA_67
*347 ANTENNA_68
*348 ANTENNA_69
*349 ANTENNA_70
*350 ANTENNA_71
*351 ANTENNA_72
*352 ANTENNA_73
*353 ANTENNA_74
*354 ANTENNA_75
*355 ANTENNA_76
*356 ANTENNA_77
*357 ANTENNA_78
*358 ANTENNA_79
*359 ANTENNA_80
*360 ANTENNA_81
*361 ANTENNA_82
*362 ANTENNA_83
*363 ANTENNA_84
*364 ANTENNA_85
*365 ANTENNA_86
*366 ANTENNA_87
*367 ANTENNA_88
*368 ANTENNA_89
*369 ANTENNA_90
*370 ANTENNA_91
*371 ANTENNA_92
*372 ANTENNA_93
*373 ANTENNA_94
*374 ANTENNA_95
*375 ANTENNA_96
*376 ANTENNA_97
*377 ANTENNA_98
*378 ANTENNA_99
*379 ANTENNA_100
*380 ANTENNA_101
*381 ANTENNA_102
*382 ANTENNA_103
*383 ANTENNA_104
*384 ANTENNA_105
*385 ANTENNA_106
*386 ANTENNA_107
*387 ANTENNA_108
*388 ANTENNA_109
*389 ANTENNA_110
*390 ANTENNA_111
*391 ANTENNA_112
*392 ANTENNA_113
*393 ANTENNA_114
*394 ANTENNA_115
*395 ANTENNA_116
*396 ANTENNA_117
*397 ANTENNA_118
*398 ANTENNA_119
*399 ANTENNA_120
*400 ANTENNA_121
*401 FILLER_0_0
*402 FILLER_0_7
*403 FILLER_0_14
*404 FILLER_0_21
*405 FILLER_0_28
*406 FILLER_0_35
*407 FILLER_0_42
*408 FILLER_0_49
*409 FILLER_0_56
*410 FILLER_0_63
*411 FILLER_0_70
*412 FILLER_0_77
*413 FILLER_0_84
*414 FILLER_0_91
*415 FILLER_0_98
*416 FILLER_0_105
*417 FILLER_0_112
*418 FILLER_0_119
*419 FILLER_0_126
*420 FILLER_0_133
*421 FILLER_0_140
*422 FILLER_0_147
*423 FILLER_0_154
*424 FILLER_0_161
*425 FILLER_0_168
*426 FILLER_0_175
*427 FILLER_0_182
*428 FILLER_0_189
*429 FILLER_0_196
*430 FILLER_0_203
*431 FILLER_0_210
*432 FILLER_0_217
*433 FILLER_0_224
*434 FILLER_0_231
*435 FILLER_0_238
*436 FILLER_0_245
*437 FILLER_0_252
*438 FILLER_0_259
*439 FILLER_0_266
*440 FILLER_0_273
*441 FILLER_0_280
*442 FILLER_0_287
*443 FILLER_0_294
*444 FILLER_0_301
*445 FILLER_0_308
*446 FILLER_0_315
*447 FILLER_0_322
*448 FILLER_0_329
*449 FILLER_0_336
*450 FILLER_0_343
*451 FILLER_0_350
*452 FILLER_0_357
*453 FILLER_0_364
*454 FILLER_0_371
*455 FILLER_0_378
*456 FILLER_0_385
*457 FILLER_0_392
*458 FILLER_0_399
*459 FILLER_0_406
*460 FILLER_0_413
*461 FILLER_0_420
*462 FILLER_0_427
*463 FILLER_0_434
*464 FILLER_0_441
*465 FILLER_0_448
*466 FILLER_0_455
*467 FILLER_0_462
*468 FILLER_0_469
*469 FILLER_0_476
*470 FILLER_0_483
*471 FILLER_0_490
*472 FILLER_0_497
*473 FILLER_0_504
*474 FILLER_0_511
*475 FILLER_0_518
*476 FILLER_0_525
*477 FILLER_0_532
*478 FILLER_0_539
*479 FILLER_0_546
*480 FILLER_0_553
*481 FILLER_0_560
*482 FILLER_0_567
*483 FILLER_0_574
*484 FILLER_0_581
*485 FILLER_0_588
*486 FILLER_0_595
*487 FILLER_0_602
*488 FILLER_0_609
*489 FILLER_0_616
*490 FILLER_0_623
*491 FILLER_0_630
*492 FILLER_0_637
*493 FILLER_0_644
*494 FILLER_0_651
*495 FILLER_0_658
*496 FILLER_0_665
*497 FILLER_0_672
*498 FILLER_0_679
*499 FILLER_0_686
*500 FILLER_0_693
*501 FILLER_0_700
*502 FILLER_0_707
*503 FILLER_0_714
*504 FILLER_0_721
*505 FILLER_0_728
*506 FILLER_0_735
*507 FILLER_0_742
*508 FILLER_0_749
*509 FILLER_0_756
*510 FILLER_0_763
*511 FILLER_0_770
*512 FILLER_0_777
*513 FILLER_0_784
*514 FILLER_0_791
*515 FILLER_0_798
*516 FILLER_0_805
*517 FILLER_0_812
*518 FILLER_0_819
*519 FILLER_0_826
*520 FILLER_0_833
*521 FILLER_0_840
*522 FILLER_0_847
*523 FILLER_0_854
*524 FILLER_0_861
*525 FILLER_0_868
*526 FILLER_0_875
*527 FILLER_0_877
*528 FILLER_1_0
*529 FILLER_1_7
*530 FILLER_1_14
*531 FILLER_1_21
*532 FILLER_1_28
*533 FILLER_1_35
*534 FILLER_1_42
*535 FILLER_1_49
*536 FILLER_1_56
*537 FILLER_1_63
*538 FILLER_1_70
*539 FILLER_1_77
*540 FILLER_1_84
*541 FILLER_1_91
*542 FILLER_1_98
*543 FILLER_1_105
*544 FILLER_1_112
*545 FILLER_1_119
*546 FILLER_1_126
*547 FILLER_1_133
*548 FILLER_1_140
*549 FILLER_1_147
*550 FILLER_1_154
*551 FILLER_1_161
*552 FILLER_1_168
*553 FILLER_1_175
*554 FILLER_1_182
*555 FILLER_1_189
*556 FILLER_1_196
*557 FILLER_1_203
*558 FILLER_1_210
*559 FILLER_1_217
*560 FILLER_1_224
*561 FILLER_1_231
*562 FILLER_1_238
*563 FILLER_1_245
*564 FILLER_1_252
*565 FILLER_1_259
*566 FILLER_1_266
*567 FILLER_1_273
*568 FILLER_1_280
*569 FILLER_1_287
*570 FILLER_1_294
*571 FILLER_1_301
*572 FILLER_1_308
*573 FILLER_1_315
*574 FILLER_1_322
*575 FILLER_1_329
*576 FILLER_1_336
*577 FILLER_1_343
*578 FILLER_1_350
*579 FILLER_1_357
*580 FILLER_1_364
*581 FILLER_1_371
*582 FILLER_1_378
*583 FILLER_1_385
*584 FILLER_1_392
*585 FILLER_1_399
*586 FILLER_1_406
*587 FILLER_1_413
*588 FILLER_1_420
*589 FILLER_1_427
*590 FILLER_1_434
*591 FILLER_1_441
*592 FILLER_1_448
*593 FILLER_1_455
*594 FILLER_1_462
*595 FILLER_1_469
*596 FILLER_1_476
*597 FILLER_1_483
*598 FILLER_1_490
*599 FILLER_1_497
*600 FILLER_1_504
*601 FILLER_1_511
*602 FILLER_1_518
*603 FILLER_1_525
*604 FILLER_1_532
*605 FILLER_1_539
*606 FILLER_1_546
*607 FILLER_1_553
*608 FILLER_1_560
*609 FILLER_1_567
*610 FILLER_1_574
*611 FILLER_1_581
*612 FILLER_1_588
*613 FILLER_1_595
*614 FILLER_1_602
*615 FILLER_1_609
*616 FILLER_1_616
*617 FILLER_1_623
*618 FILLER_1_630
*619 FILLER_1_637
*620 FILLER_1_644
*621 FILLER_1_651
*622 FILLER_1_658
*623 FILLER_1_665
*624 FILLER_1_672
*625 FILLER_1_679
*626 FILLER_1_686
*627 FILLER_1_693
*628 FILLER_1_700
*629 FILLER_1_707
*630 FILLER_1_714
*631 FILLER_1_721
*632 FILLER_1_728
*633 FILLER_1_735
*634 FILLER_1_742
*635 FILLER_1_749
*636 FILLER_1_756
*637 FILLER_1_763
*638 FILLER_1_770
*639 FILLER_1_777
*640 FILLER_1_784
*641 FILLER_1_791
*642 FILLER_1_798
*643 FILLER_1_805
*644 FILLER_1_812
*645 FILLER_1_819
*646 FILLER_1_826
*647 FILLER_1_833
*648 FILLER_1_840
*649 FILLER_1_847
*650 FILLER_1_854
*651 FILLER_1_861
*652 FILLER_1_868
*653 FILLER_1_875
*654 FILLER_1_877
*655 FILLER_2_0
*656 FILLER_2_7
*657 FILLER_2_14
*658 FILLER_2_21
*659 FILLER_2_28
*660 FILLER_2_35
*661 FILLER_2_42
*662 FILLER_2_49
*663 FILLER_2_56
*664 FILLER_2_63
*665 FILLER_2_70
*666 FILLER_2_77
*667 FILLER_2_84
*668 FILLER_2_91
*669 FILLER_2_98
*670 FILLER_2_105
*671 FILLER_2_112
*672 FILLER_2_119
*673 FILLER_2_126
*674 FILLER_2_133
*675 FILLER_2_140
*676 FILLER_2_147
*677 FILLER_2_154
*678 FILLER_2_161
*679 FILLER_2_168
*680 FILLER_2_175
*681 FILLER_2_182
*682 FILLER_2_189
*683 FILLER_2_196
*684 FILLER_2_203
*685 FILLER_2_210
*686 FILLER_2_217
*687 FILLER_2_224
*688 FILLER_2_231
*689 FILLER_2_238
*690 FILLER_2_245
*691 FILLER_2_252
*692 FILLER_2_259
*693 FILLER_2_266
*694 FILLER_2_273
*695 FILLER_2_280
*696 FILLER_2_287
*697 FILLER_2_294
*698 FILLER_2_301
*699 FILLER_2_308
*700 FILLER_2_315
*701 FILLER_2_322
*702 FILLER_2_329
*703 FILLER_2_336
*704 FILLER_2_343
*705 FILLER_2_350
*706 FILLER_2_357
*707 FILLER_2_364
*708 FILLER_2_371
*709 FILLER_2_378
*710 FILLER_2_385
*711 FILLER_2_392
*712 FILLER_2_399
*713 FILLER_2_406
*714 FILLER_2_413
*715 FILLER_2_420
*716 FILLER_2_427
*717 FILLER_2_434
*718 FILLER_2_441
*719 FILLER_2_448
*720 FILLER_2_455
*721 FILLER_2_462
*722 FILLER_2_469
*723 FILLER_2_476
*724 FILLER_2_483
*725 FILLER_2_490
*726 FILLER_2_497
*727 FILLER_2_504
*728 FILLER_2_511
*729 FILLER_2_518
*730 FILLER_2_525
*731 FILLER_2_532
*732 FILLER_2_539
*733 FILLER_2_546
*734 FILLER_2_553
*735 FILLER_2_560
*736 FILLER_2_567
*737 FILLER_2_574
*738 FILLER_2_581
*739 FILLER_2_588
*740 FILLER_2_595
*741 FILLER_2_602
*742 FILLER_2_609
*743 FILLER_2_616
*744 FILLER_2_623
*745 FILLER_2_630
*746 FILLER_2_637
*747 FILLER_2_644
*748 FILLER_2_651
*749 FILLER_2_658
*750 FILLER_2_665
*751 FILLER_2_672
*752 FILLER_2_679
*753 FILLER_2_686
*754 FILLER_2_693
*755 FILLER_2_700
*756 FILLER_2_707
*757 FILLER_2_714
*758 FILLER_2_721
*759 FILLER_2_728
*760 FILLER_2_735
*761 FILLER_2_742
*762 FILLER_2_749
*763 FILLER_2_756
*764 FILLER_2_763
*765 FILLER_2_770
*766 FILLER_2_777
*767 FILLER_2_784
*768 FILLER_2_791
*769 FILLER_2_798
*770 FILLER_2_805
*771 FILLER_2_812
*772 FILLER_2_819
*773 FILLER_2_826
*774 FILLER_2_833
*775 FILLER_2_840
*776 FILLER_2_847
*777 FILLER_2_854
*778 FILLER_2_861
*779 FILLER_2_868
*780 FILLER_2_875
*781 FILLER_2_877
*782 FILLER_3_0
*783 FILLER_3_7
*784 FILLER_3_14
*785 FILLER_3_21
*786 FILLER_3_28
*787 FILLER_3_35
*788 FILLER_3_42
*789 FILLER_3_49
*790 FILLER_3_56
*791 FILLER_3_63
*792 FILLER_3_70
*793 FILLER_3_77
*794 FILLER_3_84
*795 FILLER_3_91
*796 FILLER_3_98
*797 FILLER_3_105
*798 FILLER_3_112
*799 FILLER_3_119
*800 FILLER_3_126
*801 FILLER_3_133
*802 FILLER_3_140
*803 FILLER_3_147
*804 FILLER_3_154
*805 FILLER_3_161
*806 FILLER_3_168
*807 FILLER_3_175
*808 FILLER_3_182
*809 FILLER_3_189
*810 FILLER_3_196
*811 FILLER_3_203
*812 FILLER_3_210
*813 FILLER_3_217
*814 FILLER_3_224
*815 FILLER_3_231
*816 FILLER_3_238
*817 FILLER_3_245
*818 FILLER_3_252
*819 FILLER_3_259
*820 FILLER_3_266
*821 FILLER_3_273
*822 FILLER_3_280
*823 FILLER_3_287
*824 FILLER_3_294
*825 FILLER_3_301
*826 FILLER_3_308
*827 FILLER_3_315
*828 FILLER_3_322
*829 FILLER_3_329
*830 FILLER_3_336
*831 FILLER_3_343
*832 FILLER_3_350
*833 FILLER_3_357
*834 FILLER_3_364
*835 FILLER_3_371
*836 FILLER_3_378
*837 FILLER_3_385
*838 FILLER_3_392
*839 FILLER_3_399
*840 FILLER_3_406
*841 FILLER_3_413
*842 FILLER_3_420
*843 FILLER_3_427
*844 FILLER_3_434
*845 FILLER_3_441
*846 FILLER_3_448
*847 FILLER_3_455
*848 FILLER_3_462
*849 FILLER_3_469
*850 FILLER_3_476
*851 FILLER_3_483
*852 FILLER_3_490
*853 FILLER_3_497
*854 FILLER_3_504
*855 FILLER_3_511
*856 FILLER_3_518
*857 FILLER_3_525
*858 FILLER_3_532
*859 FILLER_3_539
*860 FILLER_3_546
*861 FILLER_3_553
*862 FILLER_3_560
*863 FILLER_3_567
*864 FILLER_3_574
*865 FILLER_3_581
*866 FILLER_3_588
*867 FILLER_3_595
*868 FILLER_3_602
*869 FILLER_3_609
*870 FILLER_3_616
*871 FILLER_3_623
*872 FILLER_3_630
*873 FILLER_3_637
*874 FILLER_3_644
*875 FILLER_3_651
*876 FILLER_3_658
*877 FILLER_3_665
*878 FILLER_3_672
*879 FILLER_3_679
*880 FILLER_3_686
*881 FILLER_3_693
*882 FILLER_3_700
*883 FILLER_3_707
*884 FILLER_3_714
*885 FILLER_3_721
*886 FILLER_3_728
*887 FILLER_3_735
*888 FILLER_3_742
*889 FILLER_3_749
*890 FILLER_3_756
*891 FILLER_3_763
*892 FILLER_3_770
*893 FILLER_3_777
*894 FILLER_3_784
*895 FILLER_3_791
*896 FILLER_3_798
*897 FILLER_3_805
*898 FILLER_3_812
*899 FILLER_3_819
*900 FILLER_3_826
*901 FILLER_3_833
*902 FILLER_3_840
*903 FILLER_3_847
*904 FILLER_3_854
*905 FILLER_3_861
*906 FILLER_3_868
*907 FILLER_3_875
*908 FILLER_3_877
*909 FILLER_4_0
*910 FILLER_4_7
*911 FILLER_4_14
*912 FILLER_4_21
*913 FILLER_4_28
*914 FILLER_4_35
*915 FILLER_4_42
*916 FILLER_4_49
*917 FILLER_4_56
*918 FILLER_4_63
*919 FILLER_4_70
*920 FILLER_4_77
*921 FILLER_4_84
*922 FILLER_4_91
*923 FILLER_4_98
*924 FILLER_4_105
*925 FILLER_4_112
*926 FILLER_4_119
*927 FILLER_4_126
*928 FILLER_4_133
*929 FILLER_4_140
*930 FILLER_4_147
*931 FILLER_4_154
*932 FILLER_4_161
*933 FILLER_4_168
*934 FILLER_4_175
*935 FILLER_4_182
*936 FILLER_4_189
*937 FILLER_4_196
*938 FILLER_4_203
*939 FILLER_4_210
*940 FILLER_4_217
*941 FILLER_4_224
*942 FILLER_4_231
*943 FILLER_4_238
*944 FILLER_4_245
*945 FILLER_4_252
*946 FILLER_4_259
*947 FILLER_4_266
*948 FILLER_4_273
*949 FILLER_4_280
*950 FILLER_4_287
*951 FILLER_4_294
*952 FILLER_4_301
*953 FILLER_4_308
*954 FILLER_4_315
*955 FILLER_4_322
*956 FILLER_4_329
*957 FILLER_4_336
*958 FILLER_4_343
*959 FILLER_4_350
*960 FILLER_4_357
*961 FILLER_4_364
*962 FILLER_4_371
*963 FILLER_4_378
*964 FILLER_4_385
*965 FILLER_4_392
*966 FILLER_4_399
*967 FILLER_4_406
*968 FILLER_4_413
*969 FILLER_4_420
*970 FILLER_4_427
*971 FILLER_4_434
*972 FILLER_4_441
*973 FILLER_4_448
*974 FILLER_4_455
*975 FILLER_4_462
*976 FILLER_4_469
*977 FILLER_4_476
*978 FILLER_4_483
*979 FILLER_4_490
*980 FILLER_4_497
*981 FILLER_4_504
*982 FILLER_4_511
*983 FILLER_4_518
*984 FILLER_4_525
*985 FILLER_4_532
*986 FILLER_4_539
*987 FILLER_4_546
*988 FILLER_4_553
*989 FILLER_4_560
*990 FILLER_4_567
*991 FILLER_4_574
*992 FILLER_4_581
*993 FILLER_4_588
*994 FILLER_4_595
*995 FILLER_4_602
*996 FILLER_4_609
*997 FILLER_4_616
*998 FILLER_4_623
*999 FILLER_4_630
*1000 FILLER_4_637
*1001 FILLER_4_644
*1002 FILLER_4_651
*1003 FILLER_4_658
*1004 FILLER_4_665
*1005 FILLER_4_672
*1006 FILLER_4_679
*1007 FILLER_4_686
*1008 FILLER_4_693
*1009 FILLER_4_700
*1010 FILLER_4_707
*1011 FILLER_4_714
*1012 FILLER_4_721
*1013 FILLER_4_728
*1014 FILLER_4_735
*1015 FILLER_4_742
*1016 FILLER_4_749
*1017 FILLER_4_756
*1018 FILLER_4_763
*1019 FILLER_4_770
*1020 FILLER_4_777
*1021 FILLER_4_784
*1022 FILLER_4_791
*1023 FILLER_4_798
*1024 FILLER_4_805
*1025 FILLER_4_812
*1026 FILLER_4_819
*1027 FILLER_4_826
*1028 FILLER_4_833
*1029 FILLER_4_840
*1030 FILLER_4_847
*1031 FILLER_4_854
*1032 FILLER_4_861
*1033 FILLER_4_868
*1034 FILLER_4_875
*1035 FILLER_4_877
*1036 FILLER_5_0
*1037 FILLER_5_7
*1038 FILLER_5_14
*1039 FILLER_5_21
*1040 FILLER_5_28
*1041 FILLER_5_35
*1042 FILLER_5_42
*1043 FILLER_5_49
*1044 FILLER_5_56
*1045 FILLER_5_63
*1046 FILLER_5_70
*1047 FILLER_5_77
*1048 FILLER_5_84
*1049 FILLER_5_91
*1050 FILLER_5_98
*1051 FILLER_5_105
*1052 FILLER_5_112
*1053 FILLER_5_119
*1054 FILLER_5_126
*1055 FILLER_5_133
*1056 FILLER_5_140
*1057 FILLER_5_147
*1058 FILLER_5_154
*1059 FILLER_5_161
*1060 FILLER_5_168
*1061 FILLER_5_175
*1062 FILLER_5_182
*1063 FILLER_5_189
*1064 FILLER_5_196
*1065 FILLER_5_203
*1066 FILLER_5_210
*1067 FILLER_5_217
*1068 FILLER_5_224
*1069 FILLER_5_231
*1070 FILLER_5_238
*1071 FILLER_5_245
*1072 FILLER_5_252
*1073 FILLER_5_259
*1074 FILLER_5_266
*1075 FILLER_5_273
*1076 FILLER_5_280
*1077 FILLER_5_287
*1078 FILLER_5_294
*1079 FILLER_5_301
*1080 FILLER_5_308
*1081 FILLER_5_315
*1082 FILLER_5_322
*1083 FILLER_5_329
*1084 FILLER_5_336
*1085 FILLER_5_343
*1086 FILLER_5_350
*1087 FILLER_5_357
*1088 FILLER_5_364
*1089 FILLER_5_371
*1090 FILLER_5_378
*1091 FILLER_5_385
*1092 FILLER_5_392
*1093 FILLER_5_399
*1094 FILLER_5_406
*1095 FILLER_5_413
*1096 FILLER_5_420
*1097 FILLER_5_427
*1098 FILLER_5_434
*1099 FILLER_5_441
*1100 FILLER_5_448
*1101 FILLER_5_455
*1102 FILLER_5_462
*1103 FILLER_5_469
*1104 FILLER_5_476
*1105 FILLER_5_483
*1106 FILLER_5_490
*1107 FILLER_5_497
*1108 FILLER_5_504
*1109 FILLER_5_511
*1110 FILLER_5_518
*1111 FILLER_5_525
*1112 FILLER_5_532
*1113 FILLER_5_539
*1114 FILLER_5_546
*1115 FILLER_5_553
*1116 FILLER_5_560
*1117 FILLER_5_567
*1118 FILLER_5_574
*1119 FILLER_5_581
*1120 FILLER_5_588
*1121 FILLER_5_595
*1122 FILLER_5_602
*1123 FILLER_5_609
*1124 FILLER_5_616
*1125 FILLER_5_623
*1126 FILLER_5_630
*1127 FILLER_5_637
*1128 FILLER_5_644
*1129 FILLER_5_651
*1130 FILLER_5_658
*1131 FILLER_5_665
*1132 FILLER_5_672
*1133 FILLER_5_679
*1134 FILLER_5_686
*1135 FILLER_5_693
*1136 FILLER_5_700
*1137 FILLER_5_707
*1138 FILLER_5_714
*1139 FILLER_5_721
*1140 FILLER_5_728
*1141 FILLER_5_735
*1142 FILLER_5_742
*1143 FILLER_5_749
*1144 FILLER_5_756
*1145 FILLER_5_763
*1146 FILLER_5_770
*1147 FILLER_5_777
*1148 FILLER_5_784
*1149 FILLER_5_791
*1150 FILLER_5_798
*1151 FILLER_5_805
*1152 FILLER_5_812
*1153 FILLER_5_819
*1154 FILLER_5_826
*1155 FILLER_5_833
*1156 FILLER_5_840
*1157 FILLER_5_847
*1158 FILLER_5_854
*1159 FILLER_5_861
*1160 FILLER_5_868
*1161 FILLER_5_875
*1162 FILLER_5_877
*1163 FILLER_6_0
*1164 FILLER_6_7
*1165 FILLER_6_14
*1166 FILLER_6_21
*1167 FILLER_6_28
*1168 FILLER_6_35
*1169 FILLER_6_42
*1170 FILLER_6_49
*1171 FILLER_6_56
*1172 FILLER_6_63
*1173 FILLER_6_70
*1174 FILLER_6_77
*1175 FILLER_6_84
*1176 FILLER_6_91
*1177 FILLER_6_98
*1178 FILLER_6_105
*1179 FILLER_6_112
*1180 FILLER_6_119
*1181 FILLER_6_126
*1182 FILLER_6_133
*1183 FILLER_6_140
*1184 FILLER_6_147
*1185 FILLER_6_154
*1186 FILLER_6_161
*1187 FILLER_6_168
*1188 FILLER_6_175
*1189 FILLER_6_182
*1190 FILLER_6_189
*1191 FILLER_6_196
*1192 FILLER_6_203
*1193 FILLER_6_210
*1194 FILLER_6_217
*1195 FILLER_6_224
*1196 FILLER_6_231
*1197 FILLER_6_238
*1198 FILLER_6_245
*1199 FILLER_6_252
*1200 FILLER_6_259
*1201 FILLER_6_266
*1202 FILLER_6_273
*1203 FILLER_6_280
*1204 FILLER_6_287
*1205 FILLER_6_294
*1206 FILLER_6_301
*1207 FILLER_6_308
*1208 FILLER_6_315
*1209 FILLER_6_322
*1210 FILLER_6_329
*1211 FILLER_6_336
*1212 FILLER_6_343
*1213 FILLER_6_350
*1214 FILLER_6_357
*1215 FILLER_6_364
*1216 FILLER_6_371
*1217 FILLER_6_378
*1218 FILLER_6_385
*1219 FILLER_6_392
*1220 FILLER_6_399
*1221 FILLER_6_406
*1222 FILLER_6_413
*1223 FILLER_6_420
*1224 FILLER_6_427
*1225 FILLER_6_434
*1226 FILLER_6_441
*1227 FILLER_6_448
*1228 FILLER_6_455
*1229 FILLER_6_462
*1230 FILLER_6_469
*1231 FILLER_6_476
*1232 FILLER_6_483
*1233 FILLER_6_490
*1234 FILLER_6_497
*1235 FILLER_6_504
*1236 FILLER_6_511
*1237 FILLER_6_518
*1238 FILLER_6_525
*1239 FILLER_6_532
*1240 FILLER_6_539
*1241 FILLER_6_546
*1242 FILLER_6_553
*1243 FILLER_6_560
*1244 FILLER_6_567
*1245 FILLER_6_574
*1246 FILLER_6_581
*1247 FILLER_6_588
*1248 FILLER_6_595
*1249 FILLER_6_602
*1250 FILLER_6_609
*1251 FILLER_6_616
*1252 FILLER_6_623
*1253 FILLER_6_630
*1254 FILLER_6_637
*1255 FILLER_6_644
*1256 FILLER_6_651
*1257 FILLER_6_658
*1258 FILLER_6_665
*1259 FILLER_6_672
*1260 FILLER_6_679
*1261 FILLER_6_686
*1262 FILLER_6_693
*1263 FILLER_6_700
*1264 FILLER_6_707
*1265 FILLER_6_714
*1266 FILLER_6_721
*1267 FILLER_6_728
*1268 FILLER_6_735
*1269 FILLER_6_742
*1270 FILLER_6_749
*1271 FILLER_6_756
*1272 FILLER_6_763
*1273 FILLER_6_770
*1274 FILLER_6_777
*1275 FILLER_6_784
*1276 FILLER_6_791
*1277 FILLER_6_798
*1278 FILLER_6_805
*1279 FILLER_6_812
*1280 FILLER_6_819
*1281 FILLER_6_826
*1282 FILLER_6_833
*1283 FILLER_6_840
*1284 FILLER_6_847
*1285 FILLER_6_854
*1286 FILLER_6_861
*1287 FILLER_6_868
*1288 FILLER_6_875
*1289 FILLER_6_877
*1290 FILLER_7_0
*1291 FILLER_7_7
*1292 FILLER_7_14
*1293 FILLER_7_21
*1294 FILLER_7_28
*1295 FILLER_7_35
*1296 FILLER_7_42
*1297 FILLER_7_49
*1298 FILLER_7_56
*1299 FILLER_7_63
*1300 FILLER_7_70
*1301 FILLER_7_77
*1302 FILLER_7_84
*1303 FILLER_7_91
*1304 FILLER_7_98
*1305 FILLER_7_105
*1306 FILLER_7_112
*1307 FILLER_7_119
*1308 FILLER_7_126
*1309 FILLER_7_133
*1310 FILLER_7_140
*1311 FILLER_7_147
*1312 FILLER_7_154
*1313 FILLER_7_161
*1314 FILLER_7_168
*1315 FILLER_7_175
*1316 FILLER_7_182
*1317 FILLER_7_189
*1318 FILLER_7_196
*1319 FILLER_7_203
*1320 FILLER_7_210
*1321 FILLER_7_217
*1322 FILLER_7_224
*1323 FILLER_7_231
*1324 FILLER_7_238
*1325 FILLER_7_245
*1326 FILLER_7_252
*1327 FILLER_7_259
*1328 FILLER_7_266
*1329 FILLER_7_273
*1330 FILLER_7_280
*1331 FILLER_7_287
*1332 FILLER_7_294
*1333 FILLER_7_301
*1334 FILLER_7_308
*1335 FILLER_7_315
*1336 FILLER_7_322
*1337 FILLER_7_329
*1338 FILLER_7_336
*1339 FILLER_7_343
*1340 FILLER_7_350
*1341 FILLER_7_357
*1342 FILLER_7_364
*1343 FILLER_7_371
*1344 FILLER_7_378
*1345 FILLER_7_385
*1346 FILLER_7_392
*1347 FILLER_7_399
*1348 FILLER_7_406
*1349 FILLER_7_413
*1350 FILLER_7_420
*1351 FILLER_7_427
*1352 FILLER_7_434
*1353 FILLER_7_441
*1354 FILLER_7_448
*1355 FILLER_7_455
*1356 FILLER_7_462
*1357 FILLER_7_469
*1358 FILLER_7_476
*1359 FILLER_7_483
*1360 FILLER_7_490
*1361 FILLER_7_497
*1362 FILLER_7_504
*1363 FILLER_7_511
*1364 FILLER_7_518
*1365 FILLER_7_525
*1366 FILLER_7_532
*1367 FILLER_7_539
*1368 FILLER_7_546
*1369 FILLER_7_553
*1370 FILLER_7_560
*1371 FILLER_7_567
*1372 FILLER_7_574
*1373 FILLER_7_581
*1374 FILLER_7_588
*1375 FILLER_7_595
*1376 FILLER_7_602
*1377 FILLER_7_609
*1378 FILLER_7_616
*1379 FILLER_7_623
*1380 FILLER_7_630
*1381 FILLER_7_637
*1382 FILLER_7_644
*1383 FILLER_7_651
*1384 FILLER_7_658
*1385 FILLER_7_665
*1386 FILLER_7_672
*1387 FILLER_7_679
*1388 FILLER_7_686
*1389 FILLER_7_693
*1390 FILLER_7_700
*1391 FILLER_7_707
*1392 FILLER_7_714
*1393 FILLER_7_721
*1394 FILLER_7_728
*1395 FILLER_7_735
*1396 FILLER_7_742
*1397 FILLER_7_749
*1398 FILLER_7_756
*1399 FILLER_7_763
*1400 FILLER_7_770
*1401 FILLER_7_777
*1402 FILLER_7_784
*1403 FILLER_7_791
*1404 FILLER_7_798
*1405 FILLER_7_805
*1406 FILLER_7_812
*1407 FILLER_7_819
*1408 FILLER_7_826
*1409 FILLER_7_833
*1410 FILLER_7_840
*1411 FILLER_7_847
*1412 FILLER_7_854
*1413 FILLER_7_861
*1414 FILLER_7_868
*1415 FILLER_7_875
*1416 FILLER_7_877
*1417 FILLER_8_0
*1418 FILLER_8_7
*1419 FILLER_8_14
*1420 FILLER_8_21
*1421 FILLER_8_28
*1422 FILLER_8_35
*1423 FILLER_8_42
*1424 FILLER_8_49
*1425 FILLER_8_56
*1426 FILLER_8_63
*1427 FILLER_8_70
*1428 FILLER_8_77
*1429 FILLER_8_84
*1430 FILLER_8_91
*1431 FILLER_8_98
*1432 FILLER_8_105
*1433 FILLER_8_112
*1434 FILLER_8_119
*1435 FILLER_8_126
*1436 FILLER_8_133
*1437 FILLER_8_140
*1438 FILLER_8_147
*1439 FILLER_8_154
*1440 FILLER_8_161
*1441 FILLER_8_168
*1442 FILLER_8_175
*1443 FILLER_8_182
*1444 FILLER_8_189
*1445 FILLER_8_196
*1446 FILLER_8_203
*1447 FILLER_8_210
*1448 FILLER_8_217
*1449 FILLER_8_224
*1450 FILLER_8_231
*1451 FILLER_8_238
*1452 FILLER_8_245
*1453 FILLER_8_252
*1454 FILLER_8_259
*1455 FILLER_8_266
*1456 FILLER_8_273
*1457 FILLER_8_280
*1458 FILLER_8_287
*1459 FILLER_8_294
*1460 FILLER_8_301
*1461 FILLER_8_308
*1462 FILLER_8_315
*1463 FILLER_8_322
*1464 FILLER_8_329
*1465 FILLER_8_336
*1466 FILLER_8_343
*1467 FILLER_8_350
*1468 FILLER_8_357
*1469 FILLER_8_364
*1470 FILLER_8_371
*1471 FILLER_8_378
*1472 FILLER_8_385
*1473 FILLER_8_392
*1474 FILLER_8_399
*1475 FILLER_8_406
*1476 FILLER_8_413
*1477 FILLER_8_420
*1478 FILLER_8_427
*1479 FILLER_8_434
*1480 FILLER_8_441
*1481 FILLER_8_448
*1482 FILLER_8_455
*1483 FILLER_8_462
*1484 FILLER_8_469
*1485 FILLER_8_476
*1486 FILLER_8_483
*1487 FILLER_8_490
*1488 FILLER_8_497
*1489 FILLER_8_504
*1490 FILLER_8_511
*1491 FILLER_8_518
*1492 FILLER_8_525
*1493 FILLER_8_532
*1494 FILLER_8_539
*1495 FILLER_8_546
*1496 FILLER_8_553
*1497 FILLER_8_560
*1498 FILLER_8_567
*1499 FILLER_8_574
*1500 FILLER_8_581
*1501 FILLER_8_588
*1502 FILLER_8_595
*1503 FILLER_8_602
*1504 FILLER_8_609
*1505 FILLER_8_616
*1506 FILLER_8_623
*1507 FILLER_8_630
*1508 FILLER_8_637
*1509 FILLER_8_644
*1510 FILLER_8_651
*1511 FILLER_8_658
*1512 FILLER_8_665
*1513 FILLER_8_672
*1514 FILLER_8_679
*1515 FILLER_8_686
*1516 FILLER_8_693
*1517 FILLER_8_700
*1518 FILLER_8_707
*1519 FILLER_8_714
*1520 FILLER_8_721
*1521 FILLER_8_728
*1522 FILLER_8_735
*1523 FILLER_8_742
*1524 FILLER_8_749
*1525 FILLER_8_756
*1526 FILLER_8_763
*1527 FILLER_8_770
*1528 FILLER_8_777
*1529 FILLER_8_784
*1530 FILLER_8_791
*1531 FILLER_8_798
*1532 FILLER_8_805
*1533 FILLER_8_812
*1534 FILLER_8_819
*1535 FILLER_8_826
*1536 FILLER_8_833
*1537 FILLER_8_840
*1538 FILLER_8_847
*1539 FILLER_8_854
*1540 FILLER_8_861
*1541 FILLER_8_868
*1542 FILLER_8_875
*1543 FILLER_8_877
*1544 FILLER_9_0
*1545 FILLER_9_7
*1546 FILLER_9_14
*1547 FILLER_9_21
*1548 FILLER_9_28
*1549 FILLER_9_35
*1550 FILLER_9_42
*1551 FILLER_9_49
*1552 FILLER_9_56
*1553 FILLER_9_63
*1554 FILLER_9_70
*1555 FILLER_9_77
*1556 FILLER_9_84
*1557 FILLER_9_91
*1558 FILLER_9_98
*1559 FILLER_9_105
*1560 FILLER_9_112
*1561 FILLER_9_119
*1562 FILLER_9_126
*1563 FILLER_9_133
*1564 FILLER_9_140
*1565 FILLER_9_147
*1566 FILLER_9_154
*1567 FILLER_9_161
*1568 FILLER_9_168
*1569 FILLER_9_175
*1570 FILLER_9_182
*1571 FILLER_9_189
*1572 FILLER_9_196
*1573 FILLER_9_203
*1574 FILLER_9_210
*1575 FILLER_9_217
*1576 FILLER_9_224
*1577 FILLER_9_231
*1578 FILLER_9_238
*1579 FILLER_9_245
*1580 FILLER_9_252
*1581 FILLER_9_259
*1582 FILLER_9_266
*1583 FILLER_9_273
*1584 FILLER_9_280
*1585 FILLER_9_287
*1586 FILLER_9_294
*1587 FILLER_9_301
*1588 FILLER_9_308
*1589 FILLER_9_315
*1590 FILLER_9_322
*1591 FILLER_9_329
*1592 FILLER_9_336
*1593 FILLER_9_343
*1594 FILLER_9_350
*1595 FILLER_9_357
*1596 FILLER_9_364
*1597 FILLER_9_371
*1598 FILLER_9_378
*1599 FILLER_9_385
*1600 FILLER_9_392
*1601 FILLER_9_399
*1602 FILLER_9_406
*1603 FILLER_9_413
*1604 FILLER_9_420
*1605 FILLER_9_427
*1606 FILLER_9_434
*1607 FILLER_9_441
*1608 FILLER_9_448
*1609 FILLER_9_455
*1610 FILLER_9_462
*1611 FILLER_9_469
*1612 FILLER_9_476
*1613 FILLER_9_483
*1614 FILLER_9_490
*1615 FILLER_9_497
*1616 FILLER_9_504
*1617 FILLER_9_511
*1618 FILLER_9_518
*1619 FILLER_9_525
*1620 FILLER_9_532
*1621 FILLER_9_539
*1622 FILLER_9_546
*1623 FILLER_9_553
*1624 FILLER_9_560
*1625 FILLER_9_567
*1626 FILLER_9_574
*1627 FILLER_9_581
*1628 FILLER_9_588
*1629 FILLER_9_595
*1630 FILLER_9_602
*1631 FILLER_9_609
*1632 FILLER_9_616
*1633 FILLER_9_623
*1634 FILLER_9_630
*1635 FILLER_9_637
*1636 FILLER_9_644
*1637 FILLER_9_651
*1638 FILLER_9_658
*1639 FILLER_9_665
*1640 FILLER_9_672
*1641 FILLER_9_679
*1642 FILLER_9_686
*1643 FILLER_9_693
*1644 FILLER_9_700
*1645 FILLER_9_707
*1646 FILLER_9_714
*1647 FILLER_9_721
*1648 FILLER_9_728
*1649 FILLER_9_735
*1650 FILLER_9_742
*1651 FILLER_9_749
*1652 FILLER_9_756
*1653 FILLER_9_763
*1654 FILLER_9_770
*1655 FILLER_9_777
*1656 FILLER_9_784
*1657 FILLER_9_791
*1658 FILLER_9_798
*1659 FILLER_9_805
*1660 FILLER_9_812
*1661 FILLER_9_819
*1662 FILLER_9_826
*1663 FILLER_9_833
*1664 FILLER_9_840
*1665 FILLER_9_847
*1666 FILLER_9_854
*1667 FILLER_9_861
*1668 FILLER_9_868
*1669 FILLER_9_875
*1670 FILLER_9_877
*1671 FILLER_10_0
*1672 FILLER_10_7
*1673 FILLER_10_14
*1674 FILLER_10_21
*1675 FILLER_10_28
*1676 FILLER_10_35
*1677 FILLER_10_42
*1678 FILLER_10_49
*1679 FILLER_10_56
*1680 FILLER_10_63
*1681 FILLER_10_70
*1682 FILLER_10_77
*1683 FILLER_10_84
*1684 FILLER_10_91
*1685 FILLER_10_98
*1686 FILLER_10_105
*1687 FILLER_10_112
*1688 FILLER_10_119
*1689 FILLER_10_126
*1690 FILLER_10_133
*1691 FILLER_10_140
*1692 FILLER_10_147
*1693 FILLER_10_154
*1694 FILLER_10_161
*1695 FILLER_10_168
*1696 FILLER_10_175
*1697 FILLER_10_182
*1698 FILLER_10_189
*1699 FILLER_10_196
*1700 FILLER_10_203
*1701 FILLER_10_210
*1702 FILLER_10_217
*1703 FILLER_10_224
*1704 FILLER_10_231
*1705 FILLER_10_238
*1706 FILLER_10_245
*1707 FILLER_10_252
*1708 FILLER_10_259
*1709 FILLER_10_266
*1710 FILLER_10_273