*SPEF "ieee 1481-1999"
*DESIGN "tt_um_urish_sram_test"
*DATE "14:56:13 Monday November 04, 2024"
*VENDOR "The OpenROAD Project"
*PROGRAM "OpenROAD"
*VERSION "v2.0-16649-g40811f37f"
*DESIGN_FLOW "NAME_SCOPE LOCAL" "PIN_CAP NONE"
*DIVIDER /
*DELIMITER :
*BUS_DELIMITER []
*T_UNIT 1 NS
*C_UNIT 1 PF
*R_UNIT 1 OHM
*L_UNIT 1 HENRY

*NAME_MAP
*2 clk
*3 ena
*4 rst_n
*5 ui_in[0]
*6 ui_in[1]
*7 ui_in[2]
*8 ui_in[3]
*9 ui_in[4]
*10 ui_in[5]
*11 ui_in[6]
*12 ui_in[7]
*13 uio_in[0]
*14 uio_in[1]
*15 uio_in[2]
*16 uio_in[3]
*17 uio_in[4]
*18 uio_in[5]
*19 uio_in[6]
*20 uio_in[7]
*21 uio_oe[0]
*22 uio_oe[1]
*23 uio_oe[2]
*24 uio_oe[3]
*25 uio_oe[4]
*26 uio_oe[5]
*27 uio_oe[6]
*28 uio_oe[7]
*29 uio_out[0]
*30 uio_out[1]
*31 uio_out[2]
*32 uio_out[3]
*33 uio_out[4]
*34 uio_out[5]
*35 uio_out[6]
*36 uio_out[7]
*37 uo_out[0]
*38 uo_out[1]
*39 uo_out[2]
*40 uo_out[3]
*41 uo_out[4]
*42 uo_out[5]
*43 uo_out[6]
*44 uo_out[7]
*47 net1
*48 net2
*49 net3
*50 net4
*51 net5
*52 net6
*53 net7
*54 net8
*55 net9
*56 net10
*57 net11
*58 net12
*59 net13
*60 net14
*61 net15
*62 net16
*63 net17
*64 net18
*65 net19
*66 net20
*67 net21
*68 net22
*69 net23
*70 net24
*71 FILLER_0_0
*72 _02_
*73 _03_
*74 _04_
*75 _05_
*76 _06_
*77 _07_
*78 _08_
*79 _09_
*80 _10_
*81 _11_
*82 _12_
*83 _13_
*84 _14_
*85 _15_
*86 _16_
*87 _17_
*88 _18_
*89 _19_
*90 _20_
*91 _21_
*92 _22_
*93 _23_
*94 _24_
*95 _25_
*96 _02__1
*97 _03__2
*98 _04__3
*99 _05__4
*100 _06__5
*101 _07__6
*102 _08__7
*103 _09__8
*104 _10__9
*105 _11__10
*106 _12__11
*107 _13__12
*108 _14__13
*109 _15__14
*110 _16__15
*111 _17__16
*112 _18__17
*113 _19__18
*114 _20__19
*115 _21__20
*116 _22__21
*117 _23__22
*118 _24__23
*119 _25__24
*120 FILLER_0_7
*121 FILLER_0_14
*122 FILLER_0_21
*123 FILLER_0_28
*124 FILLER_0_35
*125 FILLER_0_42
*126 FILLER_0_49
*127 FILLER_0_56
*128 FILLER_0_63
*129 FILLER_0_70
*130 FILLER_0_77
*131 FILLER_0_84
*132 FILLER_0_91
*133 FILLER_0_98
*134 FILLER_0_105
*135 FILLER_0_112
*136 FILLER_0_119
*137 FILLER_0_126
*138 FILLER_0_133
*139 FILLER_0_140
*140 FILLER_0_147
*141 FILLER_0_154
*142 FILLER_0_161
*143 FILLER_0_168
*144 FILLER_0_175
*145 FILLER_0_182
*146 FILLER_0_189
*147 FILLER_0_196
*148 FILLER_0_203
*149 FILLER_0_210
*150 FILLER_0_217
*151 FILLER_0_224
*152 FILLER_0_231
*153 FILLER_0_238
*154 FILLER_0_245
*155 FILLER_0_252
*156 FILLER_0_259
*157 FILLER_0_266
*158 FILLER_0_273
*159 FILLER_0_280
*160 FILLER_0_287
*161 FILLER_0_294
*162 FILLER_0_301
*163 FILLER_0_308
*164 FILLER_0_315
*165 FILLER_0_322
*166 FILLER_0_329
*167 FILLER_0_336
*168 FILLER_0_343
*169 FILLER_0_350
*170 FILLER_0_357
*171 FILLER_0_364
*172 FILLER_0_371
*173 FILLER_0_378
*174 FILLER_0_385
*175 FILLER_0_392
*176 FILLER_0_399
*177 FILLER_0_406
*178 FILLER_0_413
*179 FILLER_0_420
*180 FILLER_0_427
*181 FILLER_0_434
*182 FILLER_0_441
*183 FILLER_0_448
*184 FILLER_0_455
*185 FILLER_0_462
*186 FILLER_0_469
*187 FILLER_0_476
*188 FILLER_0_483
*189 FILLER_0_490
*190 FILLER_0_497
*191 FILLER_0_504
*192 FILLER_0_511
*193 FILLER_0_518
*194 FILLER_0_525
*195 FILLER_0_532
*196 FILLER_0_539
*197 FILLER_0_546
*198 FILLER_0_553
*199 FILLER_0_560
*200 FILLER_0_567
*201 FILLER_0_574
*202 FILLER_0_581
*203 FILLER_0_588
*204 FILLER_0_595
*205 FILLER_0_602
*206 FILLER_0_609
*207 FILLER_0_616
*208 FILLER_0_623
*209 FILLER_0_630
*210 FILLER_0_637
*211 FILLER_0_644
*212 FILLER_0_651
*213 FILLER_0_658
*214 FILLER_0_665
*215 FILLER_0_672
*216 FILLER_0_679
*217 FILLER_0_686
*218 FILLER_0_693
*219 FILLER_0_700
*220 FILLER_0_707
*221 FILLER_0_714
*222 FILLER_0_721
*223 FILLER_0_728
*224 FILLER_0_735
*225 FILLER_0_742
*226 FILLER_0_749
*227 FILLER_0_756
*228 FILLER_0_763
*229 FILLER_0_770
*230 FILLER_0_777
*231 FILLER_0_784
*232 FILLER_0_791
*233 FILLER_0_798
*234 FILLER_0_805
*235 FILLER_0_812
*236 FILLER_0_819
*237 FILLER_0_826
*238 FILLER_0_833
*239 FILLER_0_840
*240 FILLER_0_847
*241 FILLER_0_854
*242 FILLER_0_861
*243 FILLER_0_868
*244 FILLER_0_875
*245 FILLER_0_877
*246 FILLER_1_0
*247 FILLER_1_7
*248 FILLER_1_14
*249 FILLER_1_21
*250 FILLER_1_28
*251 FILLER_1_35
*252 FILLER_1_42
*253 FILLER_1_49
*254 FILLER_1_56
*255 FILLER_1_63
*256 FILLER_1_70
*257 FILLER_1_77
*258 FILLER_1_84
*259 FILLER_1_91
*260 FILLER_1_98
*261 FILLER_1_105
*262 FILLER_1_112
*263 FILLER_1_119
*264 FILLER_1_126
*265 FILLER_1_133
*266 FILLER_1_140
*267 FILLER_1_147
*268 FILLER_1_154
*269 FILLER_1_161
*270 FILLER_1_168
*271 FILLER_1_175
*272 FILLER_1_182
*273 FILLER_1_189
*274 FILLER_1_196
*275 FILLER_1_203
*276 FILLER_1_210
*277 FILLER_1_217
*278 FILLER_1_224
*279 FILLER_1_231
*280 FILLER_1_238
*281 FILLER_1_245
*282 FILLER_1_252
*283 FILLER_1_259
*284 FILLER_1_266
*285 FILLER_1_273
*286 FILLER_1_280
*287 FILLER_1_287
*288 FILLER_1_294
*289 FILLER_1_301
*290 FILLER_1_308
*291 FILLER_1_315
*292 FILLER_1_322
*293 FILLER_1_329
*294 FILLER_1_336
*295 FILLER_1_343
*296 FILLER_1_350
*297 FILLER_1_357
*298 FILLER_1_364
*299 FILLER_1_371
*300 FILLER_1_378
*301 FILLER_1_385
*302 FILLER_1_392
*303 FILLER_1_399
*304 FILLER_1_406
*305 FILLER_1_413
*306 FILLER_1_420
*307 FILLER_1_427
*308 FILLER_1_434
*309 FILLER_1_441
*310 FILLER_1_448
*311 FILLER_1_455
*312 FILLER_1_462
*313 FILLER_1_469
*314 FILLER_1_476
*315 FILLER_1_483
*316 FILLER_1_490
*317 FILLER_1_497
*318 FILLER_1_504
*319 FILLER_1_511
*320 FILLER_1_518
*321 FILLER_1_525
*322 FILLER_1_532
*323 FILLER_1_539
*324 FILLER_1_546
*325 FILLER_1_553
*326 FILLER_1_560
*327 FILLER_1_567
*328 FILLER_1_574
*329 FILLER_1_581
*330 FILLER_1_588
*331 FILLER_1_595
*332 FILLER_1_602
*333 FILLER_1_609
*334 FILLER_1_616
*335 FILLER_1_623
*336 FILLER_1_630
*337 FILLER_1_637
*338 FILLER_1_644
*339 FILLER_1_651
*340 FILLER_1_658
*341 FILLER_1_665
*342 FILLER_1_672
*343 FILLER_1_679
*344 FILLER_1_686
*345 FILLER_1_693
*346 FILLER_1_700
*347 FILLER_1_707
*348 FILLER_1_714
*349 FILLER_1_721
*350 FILLER_1_728
*351 FILLER_1_735
*352 FILLER_1_742
*353 FILLER_1_749
*354 FILLER_1_756
*355 FILLER_1_763
*356 FILLER_1_770
*357 FILLER_1_777
*358 FILLER_1_784
*359 FILLER_1_791
*360 FILLER_1_798
*361 FILLER_1_805
*362 FILLER_1_812
*363 FILLER_1_819
*364 FILLER_1_826
*365 FILLER_1_833
*366 FILLER_1_840
*367 FILLER_1_847
*368 FILLER_1_854
*369 FILLER_1_861
*370 FILLER_1_868
*371 FILLER_1_875
*372 FILLER_1_877
*373 FILLER_2_0
*374 FILLER_2_7
*375 FILLER_2_14
*376 FILLER_2_21
*377 FILLER_2_28
*378 FILLER_2_35
*379 FILLER_2_42
*380 FILLER_2_49
*381 FILLER_2_56
*382 FILLER_2_63
*383 FILLER_2_70
*384 FILLER_2_77
*385 FILLER_2_84
*386 FILLER_2_91
*387 FILLER_2_98
*388 FILLER_2_105
*389 FILLER_2_112
*390 FILLER_2_119
*391 FILLER_2_126
*392 FILLER_2_133
*393 FILLER_2_140
*394 FILLER_2_147
*395 FILLER_2_154
*396 FILLER_2_161
*397 FILLER_2_168
*398 FILLER_2_175
*399 FILLER_2_182
*400 FILLER_2_189
*401 FILLER_2_196
*402 FILLER_2_203
*403 FILLER_2_210
*404 FILLER_2_217
*405 FILLER_2_224
*406 FILLER_2_231
*407 FILLER_2_238
*408 FILLER_2_245
*409 FILLER_2_252
*410 FILLER_2_259
*411 FILLER_2_266
*412 FILLER_2_273
*413 FILLER_2_280
*414 FILLER_2_287
*415 FILLER_2_294
*416 FILLER_2_301
*417 FILLER_2_308
*418 FILLER_2_315
*419 FILLER_2_322
*420 FILLER_2_329
*421 FILLER_2_336
*422 FILLER_2_343
*423 FILLER_2_350
*424 FILLER_2_357
*425 FILLER_2_364
*426 FILLER_2_371
*427 FILLER_2_378
*428 FILLER_2_385
*429 FILLER_2_392
*430 FILLER_2_399
*431 FILLER_2_406
*432 FILLER_2_413
*433 FILLER_2_420
*434 FILLER_2_427
*435 FILLER_2_434
*436 FILLER_2_441
*437 FILLER_2_448
*438 FILLER_2_455
*439 FILLER_2_462
*440 FILLER_2_469
*441 FILLER_2_476
*442 FILLER_2_483
*443 FILLER_2_490
*444 FILLER_2_497
*445 FILLER_2_504
*446 FILLER_2_511
*447 FILLER_2_518
*448 FILLER_2_525
*449 FILLER_2_532
*450 FILLER_2_539
*451 FILLER_2_546
*452 FILLER_2_553
*453 FILLER_2_560
*454 FILLER_2_567
*455 FILLER_2_574
*456 FILLER_2_581
*457 FILLER_2_588
*458 FILLER_2_595
*459 FILLER_2_602
*460 FILLER_2_609
*461 FILLER_2_616
*462 FILLER_2_623
*463 FILLER_2_630
*464 FILLER_2_637
*465 FILLER_2_644
*466 FILLER_2_651
*467 FILLER_2_658
*468 FILLER_2_665
*469 FILLER_2_672
*470 FILLER_2_679
*471 FILLER_2_686
*472 FILLER_2_693
*473 FILLER_2_700
*474 FILLER_2_707
*475 FILLER_2_714
*476 FILLER_2_721
*477 FILLER_2_728
*478 FILLER_2_735
*479 FILLER_2_742
*480 FILLER_2_749
*481 FILLER_2_756
*482 FILLER_2_763
*483 FILLER_2_770
*484 FILLER_2_777
*485 FILLER_2_784
*486 FILLER_2_791
*487 FILLER_2_798
*488 FILLER_2_805
*489 FILLER_2_812
*490 FILLER_2_819
*491 FILLER_2_826
*492 FILLER_2_833
*493 FILLER_2_840
*494 FILLER_2_847
*495 FILLER_2_854
*496 FILLER_2_861
*497 FILLER_2_868
*498 FILLER_2_875
*499 FILLER_2_877
*500 FILLER_3_0
*501 FILLER_3_7
*502 FILLER_3_14
*503 FILLER_3_21
*504 FILLER_3_28
*505 FILLER_3_35
*506 FILLER_3_42
*507 FILLER_3_49
*508 FILLER_3_56
*509 FILLER_3_63
*510 FILLER_3_70
*511 FILLER_3_77
*512 FILLER_3_84
*513 FILLER_3_91
*514 FILLER_3_98
*515 FILLER_3_105
*516 FILLER_3_112
*517 FILLER_3_119
*518 FILLER_3_126
*519 FILLER_3_133
*520 FILLER_3_140
*521 FILLER_3_147
*522 FILLER_3_154
*523 FILLER_3_161
*524 FILLER_3_168
*525 FILLER_3_175
*526 FILLER_3_182
*527 FILLER_3_189
*528 FILLER_3_196
*529 FILLER_3_203
*530 FILLER_3_210
*531 FILLER_3_217
*532 FILLER_3_224
*533 FILLER_3_231
*534 FILLER_3_238
*535 FILLER_3_245
*536 FILLER_3_252
*537 FILLER_3_259
*538 FILLER_3_266
*539 FILLER_3_273
*540 FILLER_3_280
*541 FILLER_3_287
*542 FILLER_3_294
*543 FILLER_3_301
*544 FILLER_3_308
*545 FILLER_3_315
*546 FILLER_3_322
*547 FILLER_3_329
*548 FILLER_3_336
*549 FILLER_3_343
*550 FILLER_3_350
*551 FILLER_3_357
*552 FILLER_3_364
*553 FILLER_3_371
*554 FILLER_3_378
*555 FILLER_3_385
*556 FILLER_3_392
*557 FILLER_3_399
*558 FILLER_3_406
*559 FILLER_3_413
*560 FILLER_3_420
*561 FILLER_3_427
*562 FILLER_3_434
*563 FILLER_3_441
*564 FILLER_3_448
*565 FILLER_3_455
*566 FILLER_3_462
*567 FILLER_3_469
*568 FILLER_3_476
*569 FILLER_3_483
*570 FILLER_3_490
*571 FILLER_3_497
*572 FILLER_3_504
*573 FILLER_3_511
*574 FILLER_3_518
*575 FILLER_3_525
*576 FILLER_3_532
*577 FILLER_3_539
*578 FILLER_3_546
*579 FILLER_3_553
*580 FILLER_3_560
*581 FILLER_3_567
*582 FILLER_3_574
*583 FILLER_3_581
*584 FILLER_3_588
*585 FILLER_3_595
*586 FILLER_3_602
*587 FILLER_3_609
*588 FILLER_3_616
*589 FILLER_3_623
*590 FILLER_3_630
*591 FILLER_3_637
*592 FILLER_3_644
*593 FILLER_3_651
*594 FILLER_3_658
*595 FILLER_3_665
*596 FILLER_3_672
*597 FILLER_3_679
*598 FILLER_3_686
*599 FILLER_3_693
*600 FILLER_3_700
*601 FILLER_3_707
*602 FILLER_3_714
*603 FILLER_3_721
*604 FILLER_3_728
*605 FILLER_3_735
*606 FILLER_3_742
*607 FILLER_3_749
*608 FILLER_3_756
*609 FILLER_3_763
*610 FILLER_3_770
*611 FILLER_3_777
*612 FILLER_3_784
*613 FILLER_3_791
*614 FILLER_3_798
*615 FILLER_3_805
*616 FILLER_3_812
*617 FILLER_3_819
*618 FILLER_3_826
*619 FILLER_3_833
*620 FILLER_3_840
*621 FILLER_3_847
*622 FILLER_3_854
*623 FILLER_3_861
*624 FILLER_3_868
*625 FILLER_3_875
*626 FILLER_3_877
*627 FILLER_4_0
*628 FILLER_4_7
*629 FILLER_4_14
*630 FILLER_4_21
*631 FILLER_4_28
*632 FILLER_4_35
*633 FILLER_4_42
*634 FILLER_4_49
*635 FILLER_4_56
*636 FILLER_4_63
*637 FILLER_4_70
*638 FILLER_4_77
*639 FILLER_4_84
*640 FILLER_4_91
*641 FILLER_4_98
*642 FILLER_4_105
*643 FILLER_4_112
*644 FILLER_4_119
*645 FILLER_4_126
*646 FILLER_4_133
*647 FILLER_4_140
*648 FILLER_4_147
*649 FILLER_4_154
*650 FILLER_4_161
*651 FILLER_4_168
*652 FILLER_4_175
*653 FILLER_4_182
*654 FILLER_4_189
*655 FILLER_4_196
*656 FILLER_4_203
*657 FILLER_4_210
*658 FILLER_4_217
*659 FILLER_4_224
*660 FILLER_4_231
*661 FILLER_4_238
*662 FILLER_4_245
*663 FILLER_4_252
*664 FILLER_4_259
*665 FILLER_4_266
*666 FILLER_4_273
*667 FILLER_4_280
*668 FILLER_4_287
*669 FILLER_4_294
*670 FILLER_4_301
*671 FILLER_4_308
*672 FILLER_4_315
*673 FILLER_4_322
*674 FILLER_4_329
*675 FILLER_4_336
*676 FILLER_4_343
*677 FILLER_4_350
*678 FILLER_4_357
*679 FILLER_4_364
*680 FILLER_4_371
*681 FILLER_4_378
*682 FILLER_4_385
*683 FILLER_4_392
*684 FILLER_4_399
*685 FILLER_4_406
*686 FILLER_4_413
*687 FILLER_4_420
*688 FILLER_4_427
*689 FILLER_4_434
*690 FILLER_4_441
*691 FILLER_4_448
*692 FILLER_4_455
*693 FILLER_4_462
*694 FILLER_4_469
*695 FILLER_4_476
*696 FILLER_4_483
*697 FILLER_4_490
*698 FILLER_4_497
*699 FILLER_4_504
*700 FILLER_4_511
*701 FILLER_4_518
*702 FILLER_4_525
*703 FILLER_4_532
*704 FILLER_4_539
*705 FILLER_4_546
*706 FILLER_4_553
*707 FILLER_4_560
*708 FILLER_4_567
*709 FILLER_4_574
*710 FILLER_4_581
*711 FILLER_4_588
*712 FILLER_4_595
*713 FILLER_4_602
*714 FILLER_4_609
*715 FILLER_4_616
*716 FILLER_4_623
*717 FILLER_4_630
*718 FILLER_4_637
*719 FILLER_4_644
*720 FILLER_4_651
*721 FILLER_4_658
*722 FILLER_4_665
*723 FILLER_4_672
*724 FILLER_4_679
*725 FILLER_4_686
*726 FILLER_4_693
*727 FILLER_4_700
*728 FILLER_4_707
*729 FILLER_4_714
*730 FILLER_4_721
*731 FILLER_4_728
*732 FILLER_4_735
*733 FILLER_4_742
*734 FILLER_4_749
*735 FILLER_4_756
*736 FILLER_4_763
*737 FILLER_4_770
*738 FILLER_4_777
*739 FILLER_4_784
*740 FILLER_4_791
*741 FILLER_4_798
*742 FILLER_4_805
*743 FILLER_4_812
*744 FILLER_4_819
*745 FILLER_4_826
*746 FILLER_4_833
*747 FILLER_4_840
*748 FILLER_4_847
*749 FILLER_4_854
*750 FILLER_4_861
*751 FILLER_4_868
*752 FILLER_4_875
*753 FILLER_4_877
*754 FILLER_5_0
*755 FILLER_5_7
*756 FILLER_5_14
*757 FILLER_5_21
*758 FILLER_5_28
*759 FILLER_5_35
*760 FILLER_5_42
*761 FILLER_5_49
*762 FILLER_5_56
*763 FILLER_5_63
*764 FILLER_5_70
*765 FILLER_5_77
*766 FILLER_5_84
*767 FILLER_5_91
*768 FILLER_5_98
*769 FILLER_5_105
*770 FILLER_5_112
*771 FILLER_5_119
*772 FILLER_5_126
*773 FILLER_5_133
*774 FILLER_5_140
*775 FILLER_5_147
*776 FILLER_5_154
*777 FILLER_5_161
*778 FILLER_5_168
*779 FILLER_5_175
*780 FILLER_5_182
*781 FILLER_5_189
*782 FILLER_5_196
*783 FILLER_5_203
*784 FILLER_5_210
*785 FILLER_5_217
*786 FILLER_5_224
*787 FILLER_5_231
*788 FILLER_5_238
*789 FILLER_5_245
*790 FILLER_5_252
*791 FILLER_5_259
*792 FILLER_5_266
*793 FILLER_5_273
*794 FILLER_5_280
*795 FILLER_5_287
*796 FILLER_5_294
*797 FILLER_5_301
*798 FILLER_5_308
*799 FILLER_5_315
*800 FILLER_5_322
*801 FILLER_5_329
*802 FILLER_5_336
*803 FILLER_5_343
*804 FILLER_5_350
*805 FILLER_5_357
*806 FILLER_5_364
*807 FILLER_5_371
*808 FILLER_5_378
*809 FILLER_5_385
*810 FILLER_5_392
*811 FILLER_5_399
*812 FILLER_5_406
*813 FILLER_5_413
*814 FILLER_5_420
*815 FILLER_5_427
*816 FILLER_5_434
*817 FILLER_5_441
*818 FILLER_5_448
*819 FILLER_5_455
*820 FILLER_5_462
*821 FILLER_5_469
*822 FILLER_5_476
*823 FILLER_5_483
*824 FILLER_5_490
*825 FILLER_5_497
*826 FILLER_5_504
*827 FILLER_5_511
*828 FILLER_5_518
*829 FILLER_5_525
*830 FILLER_5_532
*831 FILLER_5_539
*832 FILLER_5_546
*833 FILLER_5_553
*834 FILLER_5_560
*835 FILLER_5_567
*836 FILLER_5_574
*837 FILLER_5_581
*838 FILLER_5_588
*839 FILLER_5_595
*840 FILLER_5_602
*841 FILLER_5_609
*842 FILLER_5_616
*843 FILLER_5_623
*844 FILLER_5_630
*845 FILLER_5_637
*846 FILLER_5_644
*847 FILLER_5_651
*848 FILLER_5_658
*849 FILLER_5_665
*850 FILLER_5_672
*851 FILLER_5_679
*852 FILLER_5_686
*853 FILLER_5_693
*854 FILLER_5_700
*855 FILLER_5_707
*856 FILLER_5_714
*857 FILLER_5_721
*858 FILLER_5_728
*859 FILLER_5_735
*860 FILLER_5_742
*861 FILLER_5_749
*862 FILLER_5_756
*863 FILLER_5_763
*864 FILLER_5_770
*865 FILLER_5_777
*866 FILLER_5_784
*867 FILLER_5_791
*868 FILLER_5_798
*869 FILLER_5_805
*870 FILLER_5_812
*871 FILLER_5_819
*872 FILLER_5_826
*873 FILLER_5_833
*874 FILLER_5_840
*875 FILLER_5_847
*876 FILLER_5_854
*877 FILLER_5_861
*878 FILLER_5_868
*879 FILLER_5_875
*880 FILLER_5_877
*881 FILLER_6_0
*882 FILLER_6_7
*883 FILLER_6_14
*884 FILLER_6_21
*885 FILLER_6_28
*886 FILLER_6_35
*887 FILLER_6_42
*888 FILLER_6_49
*889 FILLER_6_56
*890 FILLER_6_63
*891 FILLER_6_70
*892 FILLER_6_77
*893 FILLER_6_84
*894 FILLER_6_91
*895 FILLER_6_98
*896 FILLER_6_105
*897 FILLER_6_112
*898 FILLER_6_119
*899 FILLER_6_126
*900 FILLER_6_133
*901 FILLER_6_140
*902 FILLER_6_147
*903 FILLER_6_154
*904 FILLER_6_161
*905 FILLER_6_168
*906 FILLER_6_175
*907 FILLER_6_182
*908 FILLER_6_189
*909 FILLER_6_196
*910 FILLER_6_203
*911 FILLER_6_210
*912 FILLER_6_217
*913 FILLER_6_224
*914 FILLER_6_231
*915 FILLER_6_238
*916 FILLER_6_245
*917 FILLER_6_252
*918 FILLER_6_259
*919 FILLER_6_266
*920 FILLER_6_273
*921 FILLER_6_280
*922 FILLER_6_287
*923 FILLER_6_294
*924 FILLER_6_301
*925 FILLER_6_308
*926 FILLER_6_315
*927 FILLER_6_322
*928 FILLER_6_329
*929 FILLER_6_336
*930 FILLER_6_343
*931 FILLER_6_350
*932 FILLER_6_357
*933 FILLER_6_364
*934 FILLER_6_371
*935 FILLER_6_378
*936 FILLER_6_385
*937 FILLER_6_392
*938 FILLER_6_399
*939 FILLER_6_406
*940 FILLER_6_413
*941 FILLER_6_420
*942 FILLER_6_427
*943 FILLER_6_434
*944 FILLER_6_441
*945 FILLER_6_448
*946 FILLER_6_455
*947 FILLER_6_462
*948 FILLER_6_469
*949 FILLER_6_476
*950 FILLER_6_483
*951 FILLER_6_490
*952 FILLER_6_497
*953 FILLER_6_504
*954 FILLER_6_511
*955 FILLER_6_518
*956 FILLER_6_525
*957 FILLER_6_532
*958 FILLER_6_539
*959 FILLER_6_546
*960 FILLER_6_553
*961 FILLER_6_560
*962 FILLER_6_567
*963 FILLER_6_574
*964 FILLER_6_581
*965 FILLER_6_588
*966 FILLER_6_595
*967 FILLER_6_602
*968 FILLER_6_609
*969 FILLER_6_616
*970 FILLER_6_623
*971 FILLER_6_630
*972 FILLER_6_637
*973 FILLER_6_644
*974 FILLER_6_651
*975 FILLER_6_658
*976 FILLER_6_665
*977 FILLER_6_672
*978 FILLER_6_679
*979 FILLER_6_686
*980 FILLER_6_693
*981 FILLER_6_700
*982 FILLER_6_707
*983 FILLER_6_714
*984 FILLER_6_721
*985 FILLER_6_728
*986 FILLER_6_735
*987 FILLER_6_742
*988 FILLER_6_749
*989 FILLER_6_756
*990 FILLER_6_763
*991 FILLER_6_770
*992 FILLER_6_777
*993 FILLER_6_784
*994 FILLER_6_791
*995 FILLER_6_798
*996 FILLER_6_805
*997 FILLER_6_812
*998 FILLER_6_819
*999 FILLER_6_826
*1000 FILLER_6_833
*1001 FILLER_6_840
*1002 FILLER_6_847
*1003 FILLER_6_854
*1004 FILLER_6_861
*1005 FILLER_6_868
*1006 FILLER_6_875
*1007 FILLER_6_877
*1008 FILLER_7_0
*1009 FILLER_7_7
*1010 FILLER_7_14
*1011 FILLER_7_21
*1012 FILLER_7_28
*1013 FILLER_7_35
*1014 FILLER_7_42
*1015 FILLER_7_49
*1016 FILLER_7_56
*1017 FILLER_7_63
*1018 FILLER_7_70
*1019 FILLER_7_77
*1020 FILLER_7_84
*1021 FILLER_7_91
*1022 FILLER_7_98
*1023 FILLER_7_105
*1024 FILLER_7_112
*1025 FILLER_7_119
*1026 FILLER_7_126
*1027 FILLER_7_133
*1028 FILLER_7_140
*1029 FILLER_7_147
*1030 FILLER_7_154
*1031 FILLER_7_161
*1032 FILLER_7_168
*1033 FILLER_7_175
*1034 FILLER_7_182
*1035 FILLER_7_189
*1036 FILLER_7_196
*1037 FILLER_7_203
*1038 FILLER_7_210
*1039 FILLER_7_217
*1040 FILLER_7_224
*1041 FILLER_7_231
*1042 FILLER_7_238
*1043 FILLER_7_245
*1044 FILLER_7_252
*1045 FILLER_7_259
*1046 FILLER_7_266
*1047 FILLER_7_273
*1048 FILLER_7_280
*1049 FILLER_7_287
*1050 FILLER_7_294
*1051 FILLER_7_301
*1052 FILLER_7_308
*1053 FILLER_7_315
*1054 FILLER_7_322
*1055 FILLER_7_329
*1056 FILLER_7_336
*1057 FILLER_7_343
*1058 FILLER_7_350
*1059 FILLER_7_357
*1060 FILLER_7_364
*1061 FILLER_7_371
*1062 FILLER_7_378
*1063 FILLER_7_385
*1064 FILLER_7_392
*1065 FILLER_7_399
*1066 FILLER_7_406
*1067 FILLER_7_413
*1068 FILLER_7_420
*1069 FILLER_7_427
*1070 FILLER_7_434
*1071 FILLER_7_441
*1072 FILLER_7_448
*1073 FILLER_7_455
*1074 FILLER_7_462
*1075 FILLER_7_469
*1076 FILLER_7_476
*1077 FILLER_7_483
*1078 FILLER_7_490
*1079 FILLER_7_497
*1080 FILLER_7_504
*1081 FILLER_7_511
*1082 FILLER_7_518
*1083 FILLER_7_525
*1084 FILLER_7_532
*1085 FILLER_7_539
*1086 FILLER_7_546
*1087 FILLER_7_553
*1088 FILLER_7_560
*1089 FILLER_7_567
*1090 FILLER_7_574
*1091 FILLER_7_581
*1092 FILLER_7_588
*1093 FILLER_7_595
*1094 FILLER_7_602
*1095 FILLER_7_609
*1096 FILLER_7_616
*1097 FILLER_7_623
*1098 FILLER_7_630
*1099 FILLER_7_637
*1100 FILLER_7_644
*1101 FILLER_7_651
*1102 FILLER_7_658
*1103 FILLER_7_665
*1104 FILLER_7_672
*1105 FILLER_7_679
*1106 FILLER_7_686
*1107 FILLER_7_693
*1108 FILLER_7_700
*1109 FILLER_7_707
*1110 FILLER_7_714
*1111 FILLER_7_721
*1112 FILLER_7_728
*1113 FILLER_7_735
*1114 FILLER_7_742
*1115 FILLER_7_749
*1116 FILLER_7_756
*1117 FILLER_7_763
*1118 FILLER_7_770
*1119 FILLER_7_777
*1120 FILLER_7_784
*1121 FILLER_7_791
*1122 FILLER_7_798
*1123 FILLER_7_805
*1124 FILLER_7_812
*1125 FILLER_7_819
*1126 FILLER_7_826
*1127 FILLER_7_833
*1128 FILLER_7_840
*1129 FILLER_7_847
*1130 FILLER_7_854
*1131 FILLER_7_861
*1132 FILLER_7_868
*1133 FILLER_7_875
*1134 FILLER_7_877
*1135 FILLER_8_0
*1136 FILLER_8_7
*1137 FILLER_8_14
*1138 FILLER_8_21
*1139 FILLER_8_28
*1140 FILLER_8_35
*1141 FILLER_8_42
*1142 FILLER_8_49
*1143 FILLER_8_56
*1144 FILLER_8_63
*1145 FILLER_8_70
*1146 FILLER_8_77
*1147 FILLER_8_84
*1148 FILLER_8_91
*1149 FILLER_8_98
*1150 FILLER_8_105
*1151 FILLER_8_112
*1152 FILLER_8_119
*1153 FILLER_8_126
*1154 FILLER_8_133
*1155 FILLER_8_140
*1156 FILLER_8_147
*1157 FILLER_8_154
*1158 FILLER_8_161
*1159 FILLER_8_168
*1160 FILLER_8_175
*1161 FILLER_8_182
*1162 FILLER_8_189
*1163 FILLER_8_196
*1164 FILLER_8_203
*1165 FILLER_8_210
*1166 FILLER_8_217
*1167 FILLER_8_224
*1168 FILLER_8_231
*1169 FILLER_8_238
*1170 FILLER_8_245
*1171 FILLER_8_252
*1172 FILLER_8_259
*1173 FILLER_8_266
*1174 FILLER_8_273
*1175 FILLER_8_280
*1176 FILLER_8_287
*1177 FILLER_8_294
*1178 FILLER_8_301
*1179 FILLER_8_308
*1180 FILLER_8_315
*1181 FILLER_8_322
*1182 FILLER_8_329
*1183 FILLER_8_336
*1184 FILLER_8_343
*1185 FILLER_8_350
*1186 FILLER_8_357
*1187 FILLER_8_364
*1188 FILLER_8_371
*1189 FILLER_8_378
*1190 FILLER_8_385
*1191 FILLER_8_392
*1192 FILLER_8_399
*1193 FILLER_8_406
*1194 FILLER_8_413
*1195 FILLER_8_420
*1196 FILLER_8_427
*1197 FILLER_8_434
*1198 FILLER_8_441
*1199 FILLER_8_448
*1200 FILLER_8_455
*1201 FILLER_8_462
*1202 FILLER_8_469
*1203 FILLER_8_476
*1204 FILLER_8_483
*1205 FILLER_8_490
*1206 FILLER_8_497
*1207 FILLER_8_504
*1208 FILLER_8_511
*1209 FILLER_8_518
*1210 FILLER_8_525
*1211 FILLER_8_532
*1212 FILLER_8_539
*1213 FILLER_8_546
*1214 FILLER_8_553
*1215 FILLER_8_560
*1216 FILLER_8_567
*1217 FILLER_8_574
*1218 FILLER_8_581
*1219 FILLER_8_588
*1220 FILLER_8_595
*1221 FILLER_8_602
*1222 FILLER_8_609
*1223 FILLER_8_616
*1224 FILLER_8_623
*1225 FILLER_8_630
*1226 FILLER_8_637
*1227 FILLER_8_644
*1228 FILLER_8_651
*1229 FILLER_8_658
*1230 FILLER_8_665
*1231 FILLER_8_672
*1232 FILLER_8_679
*1233 FILLER_8_686
*1234 FILLER_8_693
*1235 FILLER_8_700
*1236 FILLER_8_707
*1237 FILLER_8_714
*1238 FILLER_8_721
*1239 FILLER_8_728
*1240 FILLER_8_735
*1241 FILLER_8_742
*1242 FILLER_8_749
*1243 FILLER_8_756
*1244 FILLER_8_763
*1245 FILLER_8_770
*1246 FILLER_8_777
*1247 FILLER_8_784
*1248 FILLER_8_791
*1249 FILLER_8_798
*1250 FILLER_8_805
*1251 FILLER_8_812
*1252 FILLER_8_819
*1253 FILLER_8_826
*1254 FILLER_8_833
*1255 FILLER_8_840
*1256 FILLER_8_847
*1257 FILLER_8_854
*1258 FILLER_8_861
*1259 FILLER_8_868
*1260 FILLER_8_875
*1261 FILLER_8_877
*1262 FILLER_9_0
*1263 FILLER_9_7
*1264 FILLER_9_14
*1265 FILLER_9_21
*1266 FILLER_9_28
*1267 FILLER_9_35
*1268 FILLER_9_42
*1269 FILLER_9_49
*1270 FILLER_9_56
*1271 FILLER_9_63
*1272 FILLER_9_70
*1273 FILLER_9_77
*1274 FILLER_9_84
*1275 FILLER_9_91
*1276 FILLER_9_98
*1277 FILLER_9_105
*1278 FILLER_9_112
*1279 FILLER_9_119
*1280 FILLER_9_126
*1281 FILLER_9_133
*1282 FILLER_9_140
*1283 FILLER_9_147
*1284 FILLER_9_154
*1285 FILLER_9_161
*1286 FILLER_9_168
*1287 FILLER_9_175
*1288 FILLER_9_182
*1289 FILLER_9_189
*1290 FILLER_9_196
*1291 FILLER_9_203
*1292 FILLER_9_210
*1293 FILLER_9_217
*1294 FILLER_9_224
*1295 FILLER_9_231
*1296 FILLER_9_238
*1297 FILLER_9_245
*1298 FILLER_9_252
*1299 FILLER_9_259
*1300 FILLER_9_266
*1301 FILLER_9_273
*1302 FILLER_9_280
*1303 FILLER_9_287
*1304 FILLER_9_294
*1305 FILLER_9_301
*1306 FILLER_9_308
*1307 FILLER_9_315
*1308 FILLER_9_322
*1309 FILLER_9_329
*1310 FILLER_9_336
*1311 FILLER_9_343
*1312 FILLER_9_350
*1313 FILLER_9_357
*1314 FILLER_9_364
*1315 FILLER_9_371
*1316 FILLER_9_378
*1317 FILLER_9_385
*1318 FILLER_9_392
*1319 FILLER_9_399
*1320 FILLER_9_406
*1321 FILLER_9_413
*1322 FILLER_9_420
*1323 FILLER_9_427
*1324 FILLER_9_434
*1325 FILLER_9_441
*1326 FILLER_9_448
*1327 FILLER_9_455
*1328 FILLER_9_462
*1329 FILLER_9_469
*1330 FILLER_9_476
*1331 FILLER_9_483
*1332 FILLER_9_490
*1333 FILLER_9_497
*1334 FILLER_9_504
*1335 FILLER_9_511
*1336 FILLER_9_518
*1337 FILLER_9_525
*1338 FILLER_9_532
*1339 FILLER_9_539
*1340 FILLER_9_546
*1341 FILLER_9_553
*1342 FILLER_9_560
*1343 FILLER_9_567
*1344 FILLER_9_574
*1345 FILLER_9_581
*1346 FILLER_9_588
*1347 FILLER_9_595
*1348 FILLER_9_602
*1349 FILLER_9_609
*1350 FILLER_9_616
*1351 FILLER_9_623
*1352 FILLER_9_630
*1353 FILLER_9_637
*1354 FILLER_9_644
*1355 FILLER_9_651
*1356 FILLER_9_658
*1357 FILLER_9_665
*1358 FILLER_9_672
*1359 FILLER_9_679
*1360 FILLER_9_686
*1361 FILLER_9_693
*1362 FILLER_9_700
*1363 FILLER_9_707
*1364 FILLER_9_714
*1365 FILLER_9_721
*1366 FILLER_9_728
*1367 FILLER_9_735
*1368 FILLER_9_742
*1369 FILLER_9_749
*1370 FILLER_9_756
*1371 FILLER_9_763
*1372 FILLER_9_770
*1373 FILLER_9_777
*1374 FILLER_9_784
*1375 FILLER_9_791
*1376 FILLER_9_798
*1377 FILLER_9_805
*1378 FILLER_9_812
*1379 FILLER_9_819
*1380 FILLER_9_826
*1381 FILLER_9_833
*1382 FILLER_9_840
*1383 FILLER_9_847
*1384 FILLER_9_854
*1385 FILLER_9_861
*1386 FILLER_9_868
*1387 FILLER_9_875
*1388 FILLER_9_877
*1389 FILLER_10_0
*1390 FILLER_10_7
*1391 FILLER_10_14
*1392 FILLER_10_21
*1393 FILLER_10_28
*1394 FILLER_10_35
*1395 FILLER_10_42
*1396 FILLER_10_49
*1397 FILLER_10_56
*1398 FILLER_10_63
*1399 FILLER_10_70
*1400 FILLER_10_77
*1401 FILLER_10_84
*1402 FILLER_10_91
*1403 FILLER_10_98
*1404 FILLER_10_105
*1405 FILLER_10_112
*1406 FILLER_10_119
*1407 FILLER_10_126
*1408 FILLER_10_133
*1409 FILLER_10_140
*1410 FILLER_10_147
*1411 FILLER_10_154
*1412 FILLER_10_161
*1413 FILLER_10_168
*1414 FILLER_10_175
*1415 FILLER_10_182
*1416 FILLER_10_189
*1417 FILLER_10_196
*1418 FILLER_10_203
*1419 FILLER_10_210
*1420 FILLER_10_217
*1421 FILLER_10_224
*1422 FILLER_10_231
*1423 FILLER_10_238
*1424 FILLER_10_245
*1425 FILLER_10_252
*1426 FILLER_10_259
*1427 FILLER_10_266
*1428 FILLER_10_273
*1429 FILLER_10_280
*1430 FILLER_10_287
*1431 FILLER_10_294
*1432 FILLER_10_301
*1433 FILLER_10_308
*1434 FILLER_10_315
*1435 FILLER_10_322
*1436 FILLER_10_329
*1437 FILLER_10_336
*1438 FILLER_10_343
*1439 FILLER_10_350
*1440 FILLER_10_357
*1441 FILLER_10_364
*1442 FILLER_10_371
*1443 FILLER_10_378
*1444 FILLER_10_385
*1445 FILLER_10_392
*1446 FILLER_10_399
*1447 FILLER_10_406
*1448 FILLER_10_413
*1449 FILLER_10_420
*1450 FILLER_10_427
*1451 FILLER_10_434
*1452 FILLER_10_441
*1453 FILLER_10_448
*1454 FILLER_10_455
*1455 FILLER_10_462
*1456 FILLER_10_469
*1457 FILLER_10_476
*1458 FILLER_10_483
*1459 FILLER_10_490
*1460 FILLER_10_497
*1461 FILLER_10_504
*1462 FILLER_10_511
*1463 FILLER_10_518
*1464 FILLER_10_525
*1465 FILLER_10_532
*1466 FILLER_10_539
*1467 FILLER_10_546
*1468 FILLER_10_553
*1469 FILLER_10_560
*1470 FILLER_10_567
*1471 FILLER_10_574
*1472 FILLER_10_581
*1473 FILLER_10_588
*1474 FILLER_10_595
*1475 FILLER_10_602
*1476 FILLER_10_609
*1477 FILLER_10_616
*1478 FILLER_10_623
*1479 FILLER_10_630
*1480 FILLER_10_637
*1481 FILLER_10_644
*1482 FILLER_10_651
*1483 FILLER_10_658
*1484 FILLER_10_665
*1485 FILLER_10_672
*1486 FILLER_10_679
*1487 FILLER_10_686
*1488 FILLER_10_693
*1489 FILLER_10_700
*1490 FILLER_10_707
*1491 FILLER_10_714
*1492 FILLER_10_721
*1493 FILLER_10_728
*1494 FILLER_10_735
*1495 FILLER_10_742
*1496 FILLER_10_749
*1497 FILLER_10_756
*1498 FILLER_10_763
*1499 FILLER_10_770
*1500 FILLER_10_777
*1501 FILLER_10_784
*1502 FILLER_10_791
*1503 FILLER_10_798
*1504 FILLER_10_805
*1505 FILLER_10_812
*1506 FILLER_10_819
*1507 FILLER_10_826
*1508 FILLER_10_833
*1509 FILLER_10_840
*1510 FILLER_10_847
*1511 FILLER_10_854
*1512 FILLER_10_861
*1513 FILLER_10_868
*1514 FILLER_10_875
*1515 FILLER_10_877
*1516 FILLER_11_0
*1517 FILLER_11_7
*1518 FILLER_11_14
*1519 FILLER_11_21
*1520 FILLER_11_28
*1521 FILLER_11_35
*1522 FILLER_11_42
*1523 FILLER_11_49
*1524 FILLER_11_56
*1525 FILLER_11_63
*1526 FILLER_11_70
*1527 FILLER_11_77
*1528 FILLER_11_84
*1529 FILLER_11_91
*1530 FILLER_11_98
*1531 FILLER_11_105
*1532 FILLER_11_112
*1533 FILLER_11_119
*1534 FILLER_11_126
*1535 FILLER_11_133
*1536 FILLER_11_140
*1537 FILLER_11_147
*1538 FILLER_11_154
*1539 FILLER_11_161
*1540 FILLER_11_168
*1541 FILLER_11_175
*1542 FILLER_11_182
*1543 FILLER_11_189
*1544 FILLER_11_196
*1545 FILLER_11_203
*1546 FILLER_11_210
*1547 FILLER_11_217
*1548 FILLER_11_224
*1549 FILLER_11_231
*1550 FILLER_11_238
*1551 FILLER_11_245
*1552 FILLER_11_252
*1553 FILLER_11_259
*1554 FILLER_11_266
*1555 FILLER_11_273
*1556 FILLER_11_280
*1557 FILLER_11_287
*1558 FILLER_11_294
*1559 FILLER_11_301
*1560 FILLER_11_308
*1561 FILLER_11_315
*1562 FILLER_11_322
*1563 FILLER_11_329
*1564 FILLER_11_336
*1565 FILLER_11_343
*1566 FILLER_11_350
*1567 FILLER_11_357
*1568 FILLER_11_364
*1569 FILLER_11_371
*1570 FILLER_11_378
*1571 FILLER_11_385
*1572 FILLER_11_392
*1573 FILLER_11_399
*1574 FILLER_11_406
*1575 FILLER_11_413
*1576 FILLER_11_420
*1577 FILLER_11_427
*1578 FILLER_11_434
*1579 FILLER_11_441
*1580 FILLER_11_448
*1581 FILLER_11_455
*1582 FILLER_11_462
*1583 FILLER_11_469
*1584 FILLER_11_476
*1585 FILLER_11_483
*1586 FILLER_11_490
*1587 FILLER_11_497
*1588 FILLER_11_504
*1589 FILLER_11_511
*1590 FILLER_11_518
*1591 FILLER_11_525
*1592 FILLER_11_532
*1593 FILLER_11_539
*1594 FILLER_11_546
*1595 FILLER_11_553
*1596 FILLER_11_560
*1597 FILLER_11_567
*1598 FILLER_11_574
*1599 FILLER_11_581
*1600 FILLER_11_588
*1601 FILLER_11_595
*1602 FILLER_11_602
*1603 FILLER_11_609
*1604 FILLER_11_616
*1605 FILLER_11_623
*1606 FILLER_11_630
*1607 FILLER_11_637
*1608 FILLER_11_644
*1609 FILLER_11_651
*1610 FILLER_11_658
*1611 FILLER_11_665
*1612 FILLER_11_672
*1613 FILLER_11_679
*1614 FILLER_11_686
*1615 FILLER_11_693
*1616 FILLER_11_700
*1617 FILLER_11_707
*1618 FILLER_11_714
*1619 FILLER_11_721
*1620 FILLER_11_728
*1621 FILLER_11_735
*1622 FILLER_11_742
*1623 FILLER_11_749
*1624 FILLER_11_756
*1625 FILLER_11_763
*1626 FILLER_11_770
*1627 FILLER_11_777
*1628 FILLER_11_784
*1629 FILLER_11_791
*1630 FILLER_11_798
*1631 FILLER_11_805
*1632 FILLER_11_812
*1633 FILLER_11_819
*1634 FILLER_11_826
*1635 FILLER_11_833
*1636 FILLER_11_840
*1637 FILLER_11_847
*1638 FILLER_11_854
*1639 FILLER_11_861
*1640 FILLER_11_868
*1641 FILLER_11_875
*1642 FILLER_11_877
*1643 FILLER_12_0
*1644 FILLER_12_7
*1645 FILLER_12_14
*1646 FILLER_12_21
*1647 FILLER_12_28
*1648 FILLER_12_35
*1649 FILLER_12_42
*1650 FILLER_12_49
*1651 FILLER_12_56
*1652 FILLER_12_63
*1653 FILLER_12_70