*SPEF "ieee 1481-1999"
*DESIGN "tt_um_favoritohjs_scroller"
*DATE "04:35:15 Monday November 04, 2024"
*VENDOR "The OpenROAD Project"
*PROGRAM "OpenROAD"
*VERSION "v2.0-16649-g40811f37f"
*DESIGN_FLOW "NAME_SCOPE LOCAL" "PIN_CAP NONE"
*DIVIDER /
*DELIMITER :
*BUS_DELIMITER []
*T_UNIT 1 NS
*C_UNIT 1 PF
*R_UNIT 1 OHM
*L_UNIT 1 HENRY

*NAME_MAP
*1 _0000_
*2 _0001_
*3 _0002_
*4 _0003_
*5 _0004_
*6 _0005_
*7 _0006_
*8 _0007_
*9 _0008_
*10 _0009_
*11 _0010_
*12 _0011_
*13 _0012_
*14 _0013_
*15 _0014_
*16 _0015_
*17 _0016_
*18 _0017_
*19 _0018_
*20 _0019_
*21 _0020_
*22 _0021_
*23 _0022_
*24 _0023_
*25 _0024_
*26 _0025_
*27 _0026_
*28 _0027_
*29 _0028_
*30 _0029_
*31 _0030_
*32 _0031_
*33 _0032_
*34 _0033_
*35 _0034_
*36 _0035_
*37 _0036_
*38 _0037_
*39 _0038_
*40 _0039_
*41 _0040_
*42 _0041_
*43 _0042_
*44 _0043_
*45 _0044_
*46 _0045_
*47 _0046_
*48 _0047_
*49 _0048_
*50 _0049_
*51 _0050_
*52 _0051_
*53 _0052_
*54 _0053_
*55 _0054_
*56 _0055_
*57 _0056_
*58 _0057_
*59 _0058_
*60 _0059_
*61 _0060_
*62 _0061_
*63 _0062_
*64 _0063_
*65 _0064_
*66 _0065_
*67 _0066_
*68 _0067_
*69 _0068_
*70 _0069_
*71 _0070_
*72 _0071_
*73 _0072_
*74 _0073_
*75 _0074_
*76 _0075_
*77 _0076_
*78 _0077_
*79 _0078_
*80 _0079_
*81 _0080_
*82 _0081_
*83 _0082_
*84 _0083_
*85 _0084_
*86 _0085_
*87 _0086_
*88 _0087_
*89 _0088_
*90 _0089_
*91 _0090_
*92 _0091_
*93 _0092_
*94 _0093_
*95 _0094_
*96 _0095_
*97 _0096_
*98 _0097_
*99 _0098_
*100 _0099_
*101 _0100_
*102 _0101_
*103 _0102_
*104 _0103_
*105 _0104_
*106 _0105_
*107 _0106_
*108 _0107_
*109 _0108_
*110 _0109_
*111 _0110_
*112 _0111_
*113 _0112_
*114 _0113_
*115 _0114_
*116 _0115_
*117 _0116_
*118 _0117_
*119 _0118_
*120 _0119_
*121 _0120_
*122 _0121_
*123 _0122_
*124 _0123_
*125 _0124_
*126 _0125_
*127 _0126_
*128 _0127_
*129 _0128_
*130 _0129_
*131 _0130_
*132 _0131_
*133 _0132_
*134 _0133_
*135 _0134_
*136 _0135_
*137 _0136_
*138 _0137_
*139 _0138_
*140 _0139_
*141 _0140_
*142 _0141_
*143 _0142_
*144 _0143_
*145 _0144_
*146 _0145_
*147 _0146_
*148 _0147_
*149 _0148_
*150 _0149_
*151 _0150_
*152 _0151_
*153 _0152_
*154 _0153_
*155 _0154_
*156 _0155_
*157 _0156_
*158 _0157_
*159 _0158_
*160 _0159_
*161 _0160_
*162 _0161_
*163 _0162_
*164 _0163_
*165 _0164_
*166 _0165_
*167 _0166_
*168 _0167_
*169 _0168_
*170 _0169_
*171 _0170_
*172 _0171_
*173 _0172_
*174 _0173_
*175 _0174_
*176 _0175_
*177 _0176_
*178 _0177_
*179 _0178_
*180 _0179_
*181 _0180_
*182 _0181_
*183 _0182_
*184 _0183_
*185 _0184_
*186 _0185_
*187 _0186_
*188 _0187_
*189 _0188_
*190 _0189_
*191 _0190_
*192 _0191_
*193 _0192_
*194 _0193_
*195 _0194_
*196 _0195_
*197 _0196_
*198 _0197_
*199 _0198_
*200 _0199_
*201 _0200_
*202 _0201_
*203 _0202_
*204 _0203_
*205 _0204_
*206 _0205_
*207 _0206_
*208 _0207_
*209 _0208_
*210 _0209_
*211 _0210_
*212 _0211_
*213 _0212_
*214 _0213_
*215 _0214_
*216 _0215_
*217 _0216_
*218 _0217_
*219 _0218_
*220 _0219_
*221 _0220_
*222 _0221_
*223 _0222_
*224 _0223_
*225 _0224_
*226 _0225_
*227 _0226_
*228 _0227_
*229 _0228_
*230 _0229_
*231 _0230_
*232 _0231_
*233 _0232_
*234 _0233_
*235 _0234_
*236 _0235_
*237 _0236_
*238 _0237_
*239 _0238_
*240 _0239_
*241 _0240_
*242 _0241_
*243 _0242_
*244 _0243_
*245 _0244_
*246 _0245_
*247 _0246_
*248 _0247_
*249 _0248_
*250 _0249_
*251 _0250_
*252 _0251_
*253 _0252_
*254 _0253_
*255 _0254_
*256 _0255_
*257 _0256_
*258 _0257_
*259 _0258_
*260 _0259_
*261 _0260_
*262 _0261_
*263 _0262_
*264 _0263_
*265 _0264_
*266 _0265_
*267 _0266_
*268 _0267_
*269 _0268_
*270 _0269_
*271 _0270_
*272 _0271_
*273 _0272_
*274 _0273_
*275 _0274_
*276 _0275_
*277 _0276_
*278 _0277_
*279 _0278_
*280 _0279_
*281 _0280_
*282 _0281_
*283 _0282_
*284 _0283_
*285 _0284_
*286 _0285_
*287 _0286_
*288 _0287_
*289 _0288_
*290 _0289_
*291 _0290_
*292 _0291_
*293 _0292_
*294 _0293_
*295 _0294_
*296 _0295_
*297 _0296_
*298 _0297_
*299 _0298_
*300 _0299_
*301 _0300_
*302 _0301_
*303 _0302_
*304 _0303_
*305 _0304_
*306 _0305_
*307 _0306_
*308 _0307_
*309 _0308_
*310 _0309_
*311 _0310_
*312 _0311_
*313 _0312_
*314 _0313_
*315 _0314_
*316 _0315_
*317 _0316_
*318 _0317_
*319 _0318_
*320 _0319_
*321 _0320_
*322 _0321_
*323 _0322_
*324 _0323_
*325 _0324_
*326 _0325_
*327 _0326_
*328 _0327_
*329 _0328_
*330 _0329_
*331 _0330_
*332 _0331_
*333 _0332_
*334 _0333_
*335 _0334_
*336 _0335_
*337 _0336_
*338 _0337_
*339 _0338_
*340 _0339_
*341 _0340_
*342 _0341_
*343 _0342_
*344 _0343_
*345 _0344_
*346 _0345_
*347 _0346_
*348 _0347_
*349 _0348_
*350 _0349_
*351 _0350_
*352 _0351_
*353 _0352_
*354 _0353_
*355 _0354_
*356 _0355_
*357 _0356_
*358 _0357_
*359 _0358_
*360 _0359_
*361 _0360_
*362 _0361_
*363 _0362_
*364 _0363_
*365 _0364_
*366 _0365_
*367 _0366_
*368 _0367_
*369 _0368_
*370 _0369_
*371 _0370_
*372 _0371_
*373 _0372_
*374 _0373_
*375 _0374_
*376 _0375_
*377 _0376_
*378 _0377_
*379 _0378_
*380 _0379_
*381 _0380_
*382 _0381_
*383 _0382_
*384 _0383_
*385 _0384_
*386 _0385_
*387 _0386_
*388 _0387_
*389 _0388_
*390 _0389_
*391 _0390_
*392 _0391_
*393 _0392_
*394 _0393_
*395 _0394_
*396 _0395_
*397 _0396_
*398 _0397_
*399 _0398_
*400 _0399_
*401 _0400_
*402 _0401_
*403 _0402_
*404 _0403_
*405 _0404_
*406 _0405_
*407 _0406_
*408 _0407_
*409 _0408_
*410 _0409_
*411 _0410_
*412 _0411_
*413 _0412_
*414 _0413_
*415 _0414_
*416 _0415_
*417 _0416_
*418 _0417_
*419 _0418_
*420 _0419_
*421 _0420_
*422 _0421_
*423 _0422_
*424 _0423_
*425 _0424_
*426 _0425_
*427 _0426_
*428 _0427_
*429 _0428_
*430 _0429_
*431 _0430_
*432 _0431_
*433 _0432_
*434 _0433_
*435 _0434_
*436 _0435_
*437 _0436_
*438 _0437_
*439 _0438_
*440 _0439_
*441 _0440_
*442 _0441_
*443 _0442_
*444 _0443_
*445 _0444_
*446 _0445_
*447 _0446_
*448 _0447_
*449 _0448_
*450 _0449_
*451 _0450_
*452 _0451_
*453 _0452_
*454 _0453_
*455 _0454_
*456 _0455_
*457 _0456_
*458 _0457_
*459 _0458_
*460 _0459_
*461 _0460_
*462 _0461_
*463 _0462_
*464 _0463_
*465 _0464_
*466 _0465_
*467 _0466_
*468 _0467_
*469 _0468_
*470 _0469_
*471 _0470_
*472 _0471_
*473 _0472_
*474 _0473_
*475 _0474_
*476 _0475_
*477 _0476_
*478 _0477_
*479 _0478_
*480 _0479_
*481 _0480_
*482 _0481_
*483 _0482_
*484 _0483_
*485 _0484_
*486 _0485_
*487 _0486_
*488 _0487_
*489 _0488_
*490 _0489_
*491 _0490_
*492 _0491_
*493 _0492_
*494 _0493_
*495 _0494_
*496 _0495_
*497 _0496_
*498 _0497_
*499 _0498_
*500 _0499_
*501 _0500_
*502 _0501_
*503 _0502_
*504 _0503_
*505 _0504_
*506 _0505_
*507 _0506_
*508 _0507_
*509 _0508_
*510 _0509_
*511 _0510_
*512 _0511_
*513 _0512_
*514 _0513_
*515 _0514_
*516 _0515_
*517 _0516_
*518 _0517_
*519 _0518_
*520 _0519_
*521 _0520_
*522 _0521_
*523 _0522_
*524 _0523_
*525 _0524_
*526 _0525_
*527 _0526_
*528 _0527_
*529 _0528_
*530 _0529_
*531 _0530_
*532 _0531_
*533 _0532_
*534 _0533_
*535 _0534_
*536 _0535_
*537 _0536_
*538 _0537_
*539 _0538_
*540 _0539_
*541 _0540_
*542 _0541_
*543 _0542_
*544 _0543_
*545 _0544_
*546 _0545_
*547 _0546_
*548 _0547_
*549 _0548_
*550 _0549_
*551 _0550_
*552 _0551_
*553 _0552_
*554 _0553_
*555 _0554_
*556 _0555_
*557 _0556_
*558 _0557_
*559 _0558_
*560 _0559_
*561 _0560_
*562 _0561_
*563 _0562_
*564 _0563_
*565 _0564_
*566 _0565_
*567 _0566_
*568 _0567_
*569 _0568_
*570 _0569_
*571 _0570_
*572 _0571_
*573 _0572_
*574 _0573_
*575 _0574_
*576 _0575_
*577 _0576_
*578 _0577_
*579 _0578_
*580 _0579_
*581 _0580_
*582 _0581_
*583 _0582_
*584 _0583_
*585 _0584_
*586 _0585_
*587 _0586_
*588 _0587_
*589 _0588_
*590 _0589_
*591 _0590_
*592 _0591_
*593 _0592_
*594 _0593_
*595 _0594_
*596 _0595_
*597 _0596_
*598 _0597_
*599 _0598_
*600 _0599_
*601 _0600_
*602 _0601_
*603 _0602_
*604 _0603_
*605 _0604_
*606 _0605_
*607 _0606_
*608 _0607_
*609 _0608_
*610 _0609_
*611 _0610_
*612 _0611_
*613 _0612_
*614 _0613_
*615 _0614_
*616 _0615_
*617 _0616_
*618 _0617_
*619 _0618_
*620 _0619_
*621 _0620_
*622 _0621_
*623 _0622_
*624 _0623_
*625 _0624_
*626 _0625_
*627 _0626_
*628 _0627_
*629 _0628_
*630 _0629_
*631 _0630_
*632 _0631_
*633 _0632_
*634 _0633_
*635 _0634_
*636 _0635_
*637 _0636_
*638 _0637_
*639 _0638_
*640 _0639_
*641 _0640_
*642 _0641_
*643 _0642_
*644 _0643_
*645 _0644_
*646 _0645_
*647 _0646_
*648 _0647_
*649 _0648_
*650 _0649_
*651 _0650_
*652 _0651_
*653 _0652_
*654 _0653_
*655 _0654_
*656 _0655_
*657 _0656_
*658 _0657_
*659 _0658_
*660 _0659_
*661 _0660_
*662 _0661_
*663 _0662_
*664 _0663_
*665 _0664_
*666 _0665_
*667 _0666_
*668 _0667_
*669 _0668_
*670 _0669_
*671 _0670_
*672 clknet_0_clk
*673 net58
*674 bd\[0\]
*675 bd\[1\]
*676 bd\[2\]
*677 clk
*678 color_ditherer\.dither
*679 color_ditherer\.gin\[0\]
*680 color_ditherer\.gin\[1\]
*681 color_ditherer\.gin\[2\]
*682 count1\[0\]
*683 count1\[1\]
*684 count1\[2\]
*685 count1b\[0\]
*686 count1b\[1\]
*687 count1b\[2\]
*688 count2\[0\]
*689 count2\[1\]
*690 count2b\[0\]
*691 count2b\[1\]
*692 count2low
*693 cutoff1\[0\]
*694 cutoff1\[1\]
*695 cutoff1\[2\]
*696 cutoff1\[3\]
*697 cutoff1\[4\]
*698 cutoff2\[0\]
*699 cutoff2\[1\]
*700 cutoff2\[2\]
*701 cutoff2\[3\]
*702 cutoff2\[4\]
*703 ena
*704 hcount\[0\]
*705 hcount\[1\]
*706 hcount\[2\]
*707 hcount\[3\]
*708 hcount\[4\]
*709 hcount\[5\]
*710 hcount\[6\]
*711 hcount\[7\]
*712 hcount\[8\]
*713 hcount\[9\]
*714 hsync
*715 l1\[0\]
*716 l1\[1\]
*717 l1\[2\]
*718 l1\[3\]
*719 l2\[0\]
*720 l2\[1\]
*721 l2\[2\]
*722 l2\[3\]
*723 lfsr1\[4\]
*724 lfsr1\[5\]
*725 lfsr1\[6\]
*726 lfsr1\[7\]
*727 lfsr1\[8\]
*728 lfsr1\[9\]
*729 lfsr1b\[0\]
*730 lfsr1b\[1\]
*731 lfsr1b\[2\]
*732 lfsr1b\[3\]
*733 lfsr1b\[4\]
*734 lfsr1b\[5\]
*735 lfsr1b\[6\]
*736 lfsr1b\[7\]
*737 lfsr1b\[8\]
*738 lfsr1b\[9\]
*739 lfsr2\[4\]
*740 lfsr2\[5\]
*741 lfsr2\[6\]
*742 lfsr2\[7\]
*743 lfsr2\[8\]
*744 lfsr2\[9\]
*745 lfsr2b\[0\]
*746 lfsr2b\[1\]
*747 lfsr2b\[2\]
*748 lfsr2b\[3\]
*749 lfsr2b\[4\]
*750 lfsr2b\[5\]
*751 lfsr2b\[6\]
*752 lfsr2b\[7\]
*753 lfsr2b\[8\]
*754 lfsr2b\[9\]
*755 rst_n
*756 ui_in[0]
*757 ui_in[1]
*758 ui_in[2]
*759 ui_in[3]
*760 ui_in[4]
*761 ui_in[5]
*762 ui_in[6]
*763 ui_in[7]
*764 uio_in[0]
*765 uio_in[1]
*766 uio_in[2]
*767 uio_in[3]
*768 uio_in[4]
*769 uio_in[5]
*770 uio_in[6]
*771 uio_in[7]
*772 uio_oe[0]
*773 uio_oe[1]
*774 uio_oe[2]
*775 uio_oe[3]
*776 uio_oe[4]
*777 uio_oe[5]
*778 uio_oe[6]
*779 uio_oe[7]
*780 uio_out[0]
*781 uio_out[1]
*782 uio_out[2]
*783 uio_out[3]
*784 uio_out[4]
*785 uio_out[5]
*786 uio_out[6]
*787 uio_out[7]
*788 uo_out[0]
*789 uo_out[1]
*790 uo_out[2]
*791 uo_out[3]
*792 uo_out[4]
*793 uo_out[5]
*794 uo_out[6]
*795 uo_out[7]
*796 vborder1
*797 vborder2
*798 vcount\[0\]
*799 vcount\[1\]
*800 vcount\[2\]
*801 vcount\[3\]
*802 vcount\[4\]
*803 vcount\[5\]
*804 vcount\[6\]
*805 vcount\[7\]
*806 vcount\[8\]
*807 vcount\[9\]
*808 vga_sync\.vga_vsync
*809 vga_sync\.xvisible
*810 vga_sync\.yvisible
*811 vscheudler1\.blockline\[0\]
*812 vscheudler1\.blockline\[1\]
*813 vscheudler1\.blockline\[2\]
*814 vscheudler1\.blockline\[3\]
*815 vscheudler1\.blockline\[4\]
*816 vscheudler1\.started
*817 vscheudler2\.blockline\[0\]
*818 vscheudler2\.blockline\[1\]
*819 vscheudler2\.blockline\[2\]
*820 vscheudler2\.blockline\[3\]
*821 vscheudler2\.blockline\[4\]
*822 vscheudler2\.started
*825 net1
*826 net2
*827 net3
*828 net4
*829 net5
*830 net6
*831 net7
*832 net8
*833 net9
*834 net10
*835 net11
*836 net12
*837 net13
*838 net14
*839 net15
*840 net16
*841 net17
*842 net18
*843 net19
*844 net20
*845 net21
*846 net22
*847 net23
*848 net24
*849 net25
*850 net26
*851 net27
*852 net28
*853 net29
*854 net30
*855 net31
*856 net32
*857 net33
*858 net34
*859 net35
*860 net36
*861 net37
*862 net38
*863 net39
*864 net40
*865 net41
*866 net42
*867 net43
*868 net44
*869 net45
*870 net46
*871 net47
*872 net48
*873 net49
*874 net50
*875 net51
*876 net52
*877 net53
*878 net54
*879 net55
*880 net56
*881 net57
*882 net59
*883 net60
*884 net61
*885 net62
*886 net63
*887 net64
*888 net65
*889 net66
*890 net67
*891 net68
*892 net69
*893 net70
*894 net71
*895 net72
*896 net73
*897 net74
*898 net75
*899 net76
*900 net77
*901 net78
*902 net79
*903 net80
*904 net81
*905 net82
*906 net83
*907 net84
*908 net85
*909 net86
*910 net87
*911 net88
*912 net89
*913 net90
*914 net91
*915 net92
*916 net93
*917 net94
*918 net95
*919 net96
*920 net97
*921 net98
*922 net99
*923 net100
*924 net101
*925 net102
*926 net103
*927 net104
*928 net105
*929 net106
*930 net107
*931 net108
*932 net109
*933 net110
*934 net111
*935 net112
*936 net113
*937 net114
*938 net115
*939 net116
*940 net117
*941 net118
*942 net119
*943 net120
*944 net121
*945 net122
*946 net123
*947 net124
*948 net125
*949 net126
*950 net127
*951 net128
*952 net129
*953 net130
*954 net131
*955 net132
*956 net133
*957 net134
*958 net135
*959 net136
*960 net137
*961 net138
*962 net139
*963 net140
*964 net141
*965 net142
*966 net143
*967 net144
*968 net145
*969 net146
*970 net147
*971 net148
*972 net149
*973 net150
*974 net151
*975 net152
*976 net153
*977 net154
*978 net155
*979 net156
*980 net157
*981 net158
*982 net159
*983 net160
*984 net161
*985 net162
*986 net163
*987 net164
*988 net165
*989 net166
*990 net167
*991 clknet_4_0_0_clk
*992 clknet_4_1_0_clk
*993 clknet_4_2_0_clk
*994 clknet_4_3_0_clk
*995 clknet_4_4_0_clk
*996 clknet_4_5_0_clk
*997 clknet_4_6_0_clk
*998 clknet_4_7_0_clk
*999 clknet_4_8_0_clk
*1000 clknet_4_9_0_clk
*1001 clknet_4_10_0_clk
*1002 clknet_4_11_0_clk
*1003 clknet_4_12_0_clk
*1004 clknet_4_13_0_clk
*1005 clknet_4_14_0_clk
*1006 clknet_4_15_0_clk
*1007 _0673_
*1008 _0674_
*1009 _0675_
*1010 _0676_
*1011 _0677_
*1012 _0678_
*1013 _0679_
*1014 _0680_
*1015 _0681_
*1016 _0682_
*1017 _0683_
*1018 _0684_
*1019 _0685_
*1020 _0686_
*1021 _0687_
*1022 _0688_
*1023 _0689_
*1024 _0690_
*1025 _0691_
*1026 _0692_
*1027 _0693_
*1028 _0694_
*1029 _0695_
*1030 _0696_
*1031 _0697_
*1032 _0698_
*1033 _0699_
*1034 _0700_
*1035 _0701_
*1036 _0702_
*1037 _0703_
*1038 _0704_
*1039 _0705_
*1040 _0706_
*1041 _0707_
*1042 _0708_
*1043 _0709_
*1044 _0710_
*1045 _0711_
*1046 _0712_
*1047 _0713_
*1048 _0714_
*1049 _0715_
*1050 _0716_
*1051 _0717_
*1052 _0718_
*1053 _0719_
*1054 _0720_
*1055 _0721_
*1056 _0722_
*1057 _0723_
*1058 _0724_
*1059 _0725_
*1060 _0726_
*1061 _0727_
*1062 _0728_
*1063 _0729_
*1064 _0730_
*1065 _0731_
*1066 _0732_
*1067 _0733_
*1068 _0734_
*1069 _0735_
*1070 _0736_
*1071 _0737_
*1072 _0738_
*1073 _0739_
*1074 _0740_
*1075 _0741_
*1076 _0742_
*1077 _0743_
*1078 _0744_
*1079 _0745_
*1080 _0746_
*1081 _0747_
*1082 _0748_
*1083 _0749_
*1084 _0750_
*1085 _0751_
*1086 _0752_
*1087 _0753_
*1088 _0754_
*1089 _0755_
*1090 _0756_
*1091 _0757_
*1092 _0758_
*1093 _0759_
*1094 _0760_
*1095 _0761_
*1096 _0762_
*1097 _0763_
*1098 _0764_
*1099 _0765_
*1100 _0766_
*1101 _0767_
*1102 _0768_
*1103 _0769_
*1104 _0770_
*1105 _0771_
*1106 _0772_
*1107 _0773_
*1108 _0774_
*1109 _0775_
*1110 _0776_
*1111 _0777_
*1112 _0778_
*1113 _0779_
*1114 _0780_
*1115 _0781_
*1116 _0782_
*1117 _0783_
*1118 _0784_
*1119 _0785_
*1120 _0786_
*1121 _0787_
*1122 _0788_
*1123 _0789_
*1124 _0790_
*1125 _0791_
*1126 _0792_
*1127 _0793_
*1128 _0794_
*1129 _0795_
*1130 _0796_
*1131 _0797_
*1132 _0798_
*1133 _0799_
*1134 _0800_
*1135 _0801_
*1136 _0802_
*1137 _0803_
*1138 _0804_
*1139 _0805_
*1140 _0806_
*1141 _0807_
*1142 _0808_
*1143 _0809_
*1144 _0810_
*1145 _0811_
*1146 _0812_
*1147 _0813_
*1148 _0814_
*1149 _0815_
*1150 _0816_
*1151 _0817_
*1152 _0818_
*1153 _0819_
*1154 _0820_
*1155 _0821_
*1156 _0822_
*1157 _0823_
*1158 _0824_
*1159 _0825_
*1160 _0826_
*1161 _0827_
*1162 _0828_
*1163 _0829_
*1164 _0830_
*1165 _0831_
*1166 _0832_
*1167 _0833_
*1168 _0834_
*1169 _0835_
*1170 _0836_
*1171 _0837_
*1172 _0838_
*1173 _0839_
*1174 _0840_
*1175 _0841_
*1176 _0842_
*1177 _0843_
*1178 _0844_
*1179 _0845_
*1180 _0846_
*1181 _0847_
*1182 _0848_
*1183 _0849_
*1184 _0850_
*1185 _0851_
*1186 _0852_
*1187 _0853_
*1188 _0854_
*1189 _0855_
*1190 _0856_
*1191 _0857_
*1192 _0858_
*1193 _0859_
*1194 _0860_
*1195 _0861_
*1196 _0862_
*1197 _0863_
*1198 _0864_
*1199 _0865_
*1200 _0866_
*1201 _0867_
*1202 _0868_
*1203 _0869_
*1204 _0870_
*1205 _0871_
*1206 _0872_
*1207 _0873_
*1208 _0874_
*1209 _0875_
*1210 _0876_
*1211 _0877_
*1212 _0878_
*1213 _0879_
*1214 _0880_
*1215 _0881_
*1216 _0882_
*1217 _0883_
*1218 _0884_
*1219 _0885_
*1220 _0886_
*1221 _0887_
*1222 _0888_
*1223 _0889_
*1224 _0890_
*1225 _0891_
*1226 _0892_
*1227 _0893_
*1228 _0894_
*1229 _0895_
*1230 _0896_
*1231 _0897_
*1232 _0898_
*1233 _0899_
*1234 _0900_
*1235 _0901_
*1236 _0902_
*1237 _0903_
*1238 _0904_
*1239 _0905_
*1240 _0906_
*1241 _0907_
*1242 _0908_
*1243 _0909_
*1244 _0910_
*1245 _0911_
*1246 _0912_
*1247 _0913_
*1248 _0914_
*1249 _0915_
*1250 _0916_
*1251 _0917_
*1252 _0918_
*1253 _0919_
*1254 _0920_
*1255 _0921_
*1256 _0922_
*1257 _0923_
*1258 _0924_
*1259 _0925_
*1260 _0926_
*1261 _0927_
*1262 _0928_
*1263 _0929_
*1264 _0930_
*1265 _0931_
*1266 _0932_
*1267 _0933_
*1268 _0934_
*1269 _0935_
*1270 _0936_
*1271 _0937_
*1272 _0938_
*1273 _0939_
*1274 _0940_
*1275 _0941_
*1276 _0942_
*1277 _0943_
*1278 _0944_
*1279 _0945_
*1280 _0946_
*1281 _0947_
*1282 _0948_
*1283 _0949_
*1284 _0950_
*1285 _0951_
*1286 _0952_
*1287 _0953_
*1288 _0954_
*1289 _0955_
*1290 _0956_
*1291 _0957_
*1292 _0958_
*1293 _0959_
*1294 _0960_
*1295 _0961_
*1296 _0962_
*1297 _0963_
*1298 _0964_
*1299 _0965_
*1300 _0966_
*1301 _0967_
*1302 _0968_
*1303 _0969_
*1304 _0970_
*1305 _0971_
*1306 _0972_
*1307 _0973_
*1308 _0974_
*1309 _0975_
*1310 _0976_
*1311 _0977_
*1312 _0978_
*1313 _0979_
*1314 _0980_
*1315 _0981_
*1316 _0982_
*1317 _0983_
*1318 _0984_
*1319 _0985_
*1320 _0986_
*1321 _0987_
*1322 _0988_
*1323 _0989_
*1324 _0990_
*1325 _0991_
*1326 _0992_
*1327 _0993_
*1328 _0994_
*1329 _0995_
*1330 _0996_
*1331 _0997_
*1332 _0998_
*1333 _0999_
*1334 _1000_
*1335 _1001_
*1336 _1002_
*1337 _1003_
*1338 _1004_
*1339 _1005_
*1340 _1006_
*1341 _1007_
*1342 _1008_
*1343 _1009_
*1344 _1010_
*1345 _1011_
*1346 _1012_
*1347 _1013_
*1348 _1014_
*1349 _1015_
*1350 _1016_
*1351 _1017_
*1352 _1018_
*1353 _1019_
*1354 _1020_
*1355 _1021_
*1356 _1022_
*1357 _1023_
*1358 _1024_
*1359 _1025_
*1360 _1026_
*1361 _1027_
*1362 _1028_
*1363 _1029_
*1364 _1030_
*1365 _1031_
*1366 _1032_
*1367 _1033_
*1368 _1034_
*1369 _1035_
*1370 _1036_
*1371 _1037_
*1372 _1038_
*1373 _1039_
*1374 _1040_
*1375 _1041_
*1376 _1042_
*1377 _1043_
*1378 _1044_
*1379 _1045_
*1380 _1046_
*1381 _1047_
*1382 _1048_
*1383 _1049_
*1384 _1050_
*1385 _1051_
*1386 _1052_
*1387 _1053_
*1388 _1054_
*1389 _1055_
*1390 _1056_
*1391 _1057_
*1392 _1058_
*1393 _1059_
*1394 _1060_
*1395 _1061_
*1396 _1062_
*1397 _1063_
*1398 _1064_
*1399 _1065_
*1400 _1066_
*1401 _1067_
*1402 _1068_
*1403 _1069_
*1404 _1070_
*1405 _1071_
*1406 _1072_
*1407 _1073_
*1408 _1074_
*1409 _1075_
*1410 _1076_
*1411 _1077_
*1412 _1078_
*1413 _1079_
*1414 _1080_
*1415 _1081_
*1416 _1082_
*1417 _1083_
*1418 _1084_
*1419 _1085_
*1420 _1086_
*1421 _1087_
*1422 _1088_
*1423 _1089_
*1424 _1090_
*1425 _1091_
*1426 _1092_
*1427 _1093_
*1428 _1094_
*1429 _1095_
*1430 _1096_
*1431 _1097_
*1432 _1098_
*1433 _1099_
*1434 _1100_
*1435 _1101_
*1436 _1102_
*1437 _1103_
*1438 _1104_
*1439 _1105_
*1440 _1106_
*1441 _1107_
*1442 _1108_
*1443 _1109_
*1444 _1110_
*1445 _1111_
*1446 _1112_
*1447 _1113_
*1448 _1114_
*1449 _1115_
*1450 _1116_
*1451 _1117_
*1452 _1118_
*1453 _1119_
*1454 _1120_
*1455 _1121_
*1456 _1122_
*1457 _1123_
*1458 _1124_
*1459 _1125_
*1460 _1126_
*1461 _1127_
*1462 _1128_
*1463 _1129_
*1464 _1130_
*1465 _1131_
*1466 _1132_
*1467 _1133_
*1468 _1134_
*1469 _1135_
*1470 _1136_
*1471 _1137_
*1472 _1138_
*1473 _1139_
*1474 _1140_
*1475 _1141_
*1476 _1142_
*1477 _1143_
*1478 _1144_
*1479 _1145_
*1480 _1146_
*1481 _1147_
*1482 _1148_
*1483 _1149_
*1484 _1150_
*1485 _1151_
*1486 _1152_
*1487 _1153_
*1488 _1154_
*1489 _1155_
*1490 _1156_
*1491 _1157_
*1492 _1158_
*1493 _1159_
*1494 _1160_
*1495 _1161_
*1496 _1162_
*1497 _1163_
*1498 _1164_
*1499 _1165_
*1500 _1166_
*1501 _1167_
*1502 _1168_
*1503 _1169_
*1504 _1170_
*1505 _1171_
*1506 _1172_
*1507 _1173_
*1508 _1174_
*1509 _1175_
*1510 _1176_
*1511 _1177_
*1512 _1178_
*1513 _1179_
*1514 _1180_
*1515 _1181_
*1516 _1182_
*1517 _1183_
*1518 _1184_
*1519 _1185_
*1520 _1186_
*1521 _1187_
*1522 _1188_
*1523 _1189_
*1524 _1190_
*1525 _1191_
*1526 _1192_
*1527 _1193_
*1528 _1194_
*1529 _1195_
*1530 _1196_
*1531 _1197_
*1532 _1198_
*1533 _1199_
*1534 _1200_
*1535 _1201_
*1536 _1202_
*1537 _1203_
*1538 _1204_
*1539 _1205_
*1540 _1206_
*1541 _1207_
*1542 _1208_
*1543 _1209_
*1544 _1210_
*1545 _1211_
*1546 _1212_
*1547 _1213_
*1548 _1214_
*1549 _1215_
*1550 _1216_
*1551 _1217_
*1552 _1218_
*1553 _1219_
*1554 _1220_
*1555 _1221_
*1556 _1222_
*1557 _1223_
*1558 _1224_
*1559 _1225_
*1560 _1226_
*1561 _1227_
*1562 _1228_
*1563 _1229_
*1564 _1230_
*1565 _1231_
*1566 _1232_
*1567 _1233_
*1568 clkbuf_0_clk
*1569 bd\[0\]\$_SDFF_PN0__58
*1570 _1236_
*1571 _1237_
*1572 _1238_
*1573 _1239_
*1574 _1240_
*1575 _1241_
*1576 _1242_
*1577 _1243_
*1578 _1244_
*1579 _1245_
*1580 _1246_
*1581 _1247_
*1582 _1248_
*1583 _1249_
*1584 _1250_
*1585 _1251_
*1586 _1252_
*1587 _1253_
*1588 _1254_
*1589 _1255_
*1590 bd\[0\]\$_SDFF_PN0_
*1591 bd\[1\]\$_SDFF_PN0_
*1592 bd\[2\]\$_SDFF_PN0_
*1593 color_ditherer\.bout\[0\]\$_SDFF_PN0_
*1594 color_ditherer\.bout\[1\]\$_SDFF_PN0_
*1595 color_ditherer\.gout\[0\]\$_SDFF_PN0_
*1596 color_ditherer\.gout\[1\]\$_SDFF_PN0_
*1597 count1\[0\]\$_SDFFE_PN1P_
*1598 count1\[1\]\$_SDFFE_PN1P_
*1599 count1\[2\]\$_SDFFE_PN1P_
*1600 count1b\[0\]\$_SDFFE_PN1P_
*1601 count1b\[1\]\$_SDFFE_PN1P_
*1602 count1b\[2\]\$_SDFFE_PN1P_
*1603 count2\[0\]\$_SDFFE_PN1P_
*1604 count2\[1\]\$_SDFFE_PN1P_
*1605 count2b\[0\]\$_SDFFE_PN1P_
*1606 count2b\[1\]\$_SDFFE_PN1P_
*1607 count2low\$_SDFFE_PN1P_
*1608 dither\$_SDFFE_PN0P_
*1609 lfsr1\[0\]\$_SDFFE_PN1P_
*1610 lfsr1\[1\]\$_SDFFE_PN1P_
*1611 lfsr1\[2\]\$_SDFFE_PN1P_
*1612 lfsr1\[3\]\$_SDFFE_PN1P_
*1613 lfsr1\[4\]\$_SDFFE_PN1P_
*1614 lfsr1\[5\]\$_SDFFE_PN1P_
*1615 lfsr1\[6\]\$_SDFFE_PN1P_
*1616 lfsr1\[7\]\$_SDFFE_PN1P_
*1617 lfsr1\[8\]\$_SDFFE_PN1P_
*1618 lfsr1\[9\]\$_SDFFE_PN1P_
*1619 lfsr1b\[0\]\$_SDFFE_PN1P_
*1620 lfsr1b\[1\]\$_SDFFE_PN1P_
*1621 lfsr1b\[2\]\$_SDFFE_PN1P_
*1622 lfsr1b\[3\]\$_SDFFE_PN1P_
*1623 lfsr1b\[4\]\$_SDFFE_PN1P_
*1624 lfsr1b\[5\]\$_SDFFE_PN1P_
*1625 lfsr1b\[6\]\$_SDFFE_PN1P_
*1626 lfsr1b\[7\]\$_SDFFE_PN1P_
*1627 lfsr1b\[8\]\$_SDFFE_PN1P_
*1628 lfsr1b\[9\]\$_SDFFE_PN1P_
*1629 lfsr2\[0\]\$_SDFFE_PN1P_
*1630 lfsr2\[1\]\$_SDFFE_PN1P_
*1631 lfsr2\[2\]\$_SDFFE_PN1P_
*1632 lfsr2\[3\]\$_SDFFE_PN1P_
*1633 lfsr2\[4\]\$_SDFFE_PN0P_
*1634 lfsr2\[5\]\$_SDFFE_PN0P_
*1635 lfsr2\[6\]\$_SDFFE_PN0P_
*1636 lfsr2\[7\]\$_SDFFE_PN0P_
*1637 lfsr2\[8\]\$_SDFFE_PN1P_
*1638 lfsr2\[9\]\$_SDFFE_PN0P_
*1639 lfsr2b\[0\]\$_SDFFE_PN1P_
*1640 lfsr2b\[1\]\$_SDFFE_PN1P_
*1641 lfsr2b\[2\]\$_SDFFE_PN1P_
*1642 lfsr2b\[3\]\$_SDFFE_PN1P_
*1643 lfsr2b\[4\]\$_SDFFE_PN0P_
*1644 lfsr2b\[5\]\$_SDFFE_PN0P_
*1645 lfsr2b\[6\]\$_SDFFE_PN0P_
*1646 lfsr2b\[7\]\$_SDFFE_PN0P_
*1647 lfsr2b\[8\]\$_SDFFE_PN1P_
*1648 lfsr2b\[9\]\$_SDFFE_PN0P_
*1649 rd\[0\]\$_SDFF_PP0_
*1650 rd\[1\]\$_SDFF_PN0_
*1651 rd\[2\]\$_SDFF_PN0_
*1652 vga_sync\.vga_hsync\$_SDFFE_PN1P_
*1653 vga_sync\.vga_vsync\$_SDFFE_PN1P_
*1654 vga_sync\.vga_xpos\[0\]\$_SDFF_PP1_
*1655 vga_sync\.vga_xpos\[1\]\$_SDFF_PP0_
*1656 vga_sync\.vga_xpos\[2\]\$_SDFF_PP0_
*1657 vga_sync\.vga_xpos\[3\]\$_SDFF_PP0_
*1658 vga_sync\.vga_xpos\[4\]\$_SDFF_PP0_
*1659 vga_sync\.vga_xpos\[5\]\$_SDFF_PP0_
*1660 vga_sync\.vga_xpos\[6\]\$_SDFF_PP0_
*1661 vga_sync\.vga_xpos\[7\]\$_SDFF_PP0_
*1662 vga_sync\.vga_xpos\[8\]\$_SDFF_PP0_
*1663 vga_sync\.vga_xpos\[9\]\$_SDFF_PP0_
*1664 vga_sync\.vga_ypos\[0\]\$_SDFFE_PN1N_
*1665 vga_sync\.vga_ypos\[1\]\$_SDFFE_PN0N_
*1666 vga_sync\.vga_ypos\[2\]\$_SDFFE_PN0N_
*1667 vga_sync\.vga_ypos\[3\]\$_SDFFE_PN0N_
*1668 vga_sync\.vga_ypos\[4\]\$_SDFFE_PN0N_
*1669 vga_sync\.vga_ypos\[5\]\$_SDFFE_PN0N_
*1670 vga_sync\.vga_ypos\[6\]\$_SDFFE_PN0N_
*1671 vga_sync\.vga_ypos\[7\]\$_SDFFE_PN0N_
*1672 vga_sync\.vga_ypos\[8\]\$_SDFFE_PN0N_
*1673 vga_sync\.vga_ypos\[9\]\$_SDFFE_PN0N_
*1674 vga_sync\.xvisible\$_SDFFE_PN0P_
*1675 vga_sync\.yvisible\$_SDFFE_PN0P_
*1676 vscheudler1\.blockline\[0\]\$_SDFFE_PP1P_
*1677 vscheudler1\.blockline\[1\]\$_SDFFE_PP1P_
*1678 vscheudler1\.blockline\[2\]\$_SDFFE_PP1P_
*1679 vscheudler1\.blockline\[3\]\$_SDFFE_PP1P_
*1680 vscheudler1\.blockline\[4\]\$_SDFFE_PP0P_
*1681 vscheudler1\.blockval\[0\]\$_SDFFE_PP0P_
*1682 vscheudler1\.blockval\[1\]\$_SDFFE_PP0P_
*1683 vscheudler1\.blockval\[2\]\$_SDFFE_PP0P_
*1684 vscheudler1\.blockval\[3\]\$_SDFFE_PP0P_
*1685 vscheudler1\.blockval\[4\]\$_SDFFE_PP0P_
*1686 vscheudler1\.borderreg\$_SDFFE_PP0P_
*1687 vscheudler1\.started\$_SDFFE_PP0N_
*1688 vscheudler2\.blockline\[0\]\$_SDFFE_PP1P_
*1689 vscheudler2\.blockline\[1\]\$_SDFFE_PP1P_
*1690 vscheudler2\.blockline\[2\]\$_SDFFE_PP1P_
*1691 vscheudler2\.blockline\[3\]\$_SDFFE_PP0P_
*1692 vscheudler2\.blockline\[4\]\$_SDFFE_PP0P_
*1693 vscheudler2\.blockval\[0\]\$_SDFFE_PP0P_
*1694 vscheudler2\.blockval\[1\]\$_SDFFE_PP0P_
*1695 vscheudler2\.blockval\[2\]\$_SDFFE_PP0P_
*1696 vscheudler2\.blockval\[3\]\$_SDFFE_PP0P_
*1697 vscheudler2\.blockval\[4\]\$_SDFFE_PP0P_
*1698 vscheudler2\.borderreg\$_SDFFE_PP0P_
*1699 vscheudler2\.started\$_SDFFE_PP0N_
*1700 input1
*1701 output2
*1702 output3
*1703 output4
*1704 output5
*1705 output6
*1706 output7
*1707 output8
*1708 output9
*1709 fanout10
*1710 fanout11
*1711 fanout12
*1712 fanout13
*1713 fanout14
*1714 fanout15
*1715 fanout16
*1716 fanout17
*1717 fanout18
*1718 fanout19
*1719 fanout20
*1720 fanout21
*1721 fanout22
*1722 fanout23
*1723 fanout24
*1724 fanout25
*1725 fanout26
*1726 fanout27
*1727 fanout28
*1728 fanout29
*1729 fanout30
*1730 fanout31
*1731 fanout32
*1732 fanout33
*1733 fanout34
*1734 fanout35
*1735 fanout36
*1736 fanout37
*1737 fanout38
*1738 fanout39
*1739 fanout40
*1740 fanout41
*1741 _1236__42
*1742 _1237__43
*1743 _1238__44
*1744 _1239__45
*1745 _1240__46
*1746 _1241__47
*1747 _1242__48
*1748 _1243__49
*1749 _1244__50
*1750 _1245__51
*1751 _1246__52
*1752 _1247__53
*1753 _1248__54
*1754 _1249__55
*1755 _1250__56
*1756 _1251__57
*1757 bd\[1\]\$_SDFF_PN0__59
*1758 bd\[2\]\$_SDFF_PN0__60
*1759 color_ditherer\.bout\[0\]\$_SDFF_PN0__61
*1760 color_ditherer\.bout\[1\]\$_SDFF_PN0__62
*1761 color_ditherer\.gout\[0\]\$_SDFF_PN0__63
*1762 color_ditherer\.gout\[1\]\$_SDFF_PN0__64
*1763 count1\[0\]\$_SDFFE_PN1P__65
*1764 count1\[1\]\$_SDFFE_PN1P__66
*1765 count1\[2\]\$_SDFFE_PN1P__67
*1766 count1b\[0\]\$_SDFFE_PN1P__68
*1767 count1b\[1\]\$_SDFFE_PN1P__69
*1768 count1b\[2\]\$_SDFFE_PN1P__70
*1769 count2\[0\]\$_SDFFE_PN1P__71
*1770 count2\[1\]\$_SDFFE_PN1P__72
*1771 count2b\[0\]\$_SDFFE_PN1P__73
*1772 count2b\[1\]\$_SDFFE_PN1P__74
*1773 count2low\$_SDFFE_PN1P__75
*1774 dither\$_SDFFE_PN0P__76
*1775 lfsr1\[0\]\$_SDFFE_PN1P__77
*1776 lfsr1\[1\]\$_SDFFE_PN1P__78
*1777 lfsr1\[2\]\$_SDFFE_PN1P__79
*1778 lfsr1\[3\]\$_SDFFE_PN1P__80
*1779 lfsr1\[4\]\$_SDFFE_PN1P__81
*1780 lfsr1\[5\]\$_SDFFE_PN1P__82
*1781 lfsr1\[6\]\$_SDFFE_PN1P__83
*1782 lfsr1\[7\]\$_SDFFE_PN1P__84
*1783 lfsr1\[8\]\$_SDFFE_PN1P__85
*1784 lfsr1\[9\]\$_SDFFE_PN1P__86
*1785 lfsr1b\[0\]\$_SDFFE_PN1P__87
*1786 lfsr1b\[1\]\$_SDFFE_PN1P__88
*1787 lfsr1b\[2\]\$_SDFFE_PN1P__89
*1788 lfsr1b\[3\]\$_SDFFE_PN1P__90
*1789 lfsr1b\[4\]\$_SDFFE_PN1P__91
*1790 lfsr1b\[5\]\$_SDFFE_PN1P__92
*1791 lfsr1b\[6\]\$_SDFFE_PN1P__93
*1792 lfsr1b\[7\]\$_SDFFE_PN1P__94
*1793 lfsr1b\[8\]\$_SDFFE_PN1P__95
*1794 lfsr1b\[9\]\$_SDFFE_PN1P__96
*1795 lfsr2\[0\]\$_SDFFE_PN1P__97
*1796 lfsr2\[1\]\$_SDFFE_PN1P__98
*1797 lfsr2\[2\]\$_SDFFE_PN1P__99
*1798 lfsr2\[3\]\$_SDFFE_PN1P__100
*1799 lfsr2\[4\]\$_SDFFE_PN0P__101
*1800 lfsr2\[5\]\$_SDFFE_PN0P__102
*1801 lfsr2\[6\]\$_SDFFE_PN0P__103
*1802 lfsr2\[7\]\$_SDFFE_PN0P__104
*1803 lfsr2\[8\]\$_SDFFE_PN1P__105
*1804 lfsr2\[9\]\$_SDFFE_PN0P__106
*1805 lfsr2b\[0\]\$_SDFFE_PN1P__107
*1806 lfsr2b\[1\]\$_SDFFE_PN1P__108
*1807 lfsr2b\[2\]\$_SDFFE_PN1P__109
*1808 lfsr2b\[3\]\$_SDFFE_PN1P__110
*1809 lfsr2b\[4\]\$_SDFFE_PN0P__111
*1810 lfsr2b\[5\]\$_SDFFE_PN0P__112
*1811 lfsr2b\[6\]\$_SDFFE_PN0P__113
*1812 lfsr2b\[7\]\$_SDFFE_PN0P__114
*1813 lfsr2b\[8\]\$_SDFFE_PN1P__115
*1814 lfsr2b\[9\]\$_SDFFE_PN0P__116
*1815 rd\[0\]\$_SDFF_PP0__117
*1816 rd\[1\]\$_SDFF_PN0__118
*1817 rd\[2\]\$_SDFF_PN0__119
*1818 vga_sync\.vga_hsync\$_SDFFE_PN1P__120
*1819 vga_sync\.vga_vsync\$_SDFFE_PN1P__121
*1820 vga_sync\.vga_xpos\[0\]\$_SDFF_PP1__122
*1821 vga_sync\.vga_xpos\[1\]\$_SDFF_PP0__123
*1822 vga_sync\.vga_xpos\[2\]\$_SDFF_PP0__124
*1823 vga_sync\.vga_xpos\[3\]\$_SDFF_PP0__125
*1824 vga_sync\.vga_xpos\[4\]\$_SDFF_PP0__126
*1825 vga_sync\.vga_xpos\[5\]\$_SDFF_PP0__127
*1826 vga_sync\.vga_xpos\[6\]\$_SDFF_PP0__128
*1827 vga_sync\.vga_xpos\[7\]\$_SDFF_PP0__129
*1828 vga_sync\.vga_xpos\[8\]\$_SDFF_PP0__130
*1829 vga_sync\.vga_xpos\[9\]\$_SDFF_PP0__131
*1830 vga_sync\.vga_ypos\[0\]\$_SDFFE_PN1N__132
*1831 vga_sync\.vga_ypos\[1\]\$_SDFFE_PN0N__133
*1832 vga_sync\.vga_ypos\[2\]\$_SDFFE_PN0N__134
*1833 vga_sync\.vga_ypos\[3\]\$_SDFFE_PN0N__135
*1834 vga_sync\.vga_ypos\[4\]\$_SDFFE_PN0N__136
*1835 vga_sync\.vga_ypos\[5\]\$_SDFFE_PN0N__137
*1836 vga_sync\.vga_ypos\[6\]\$_SDFFE_PN0N__138
*1837 vga_sync\.vga_ypos\[7\]\$_SDFFE_PN0N__139
*1838 vga_sync\.vga_ypos\[8\]\$_SDFFE_PN0N__140
*1839 vga_sync\.vga_ypos\[9\]\$_SDFFE_PN0N__141
*1840 vga_sync\.xvisible\$_SDFFE_PN0P__142
*1841 vga_sync\.yvisible\$_SDFFE_PN0P__143
*1842 vscheudler1\.blockline\[0\]\$_SDFFE_PP1P__144
*1843 vscheudler1\.blockline\[1\]\$_SDFFE_PP1P__145
*1844 vscheudler1\.blockline\[2\]\$_SDFFE_PP1P__146
*1845 vscheudler1\.blockline\[3\]\$_SDFFE_PP1P__147
*1846 vscheudler1\.blockline\[4\]\$_SDFFE_PP0P__148
*1847 vscheudler1\.blockval\[0\]\$_SDFFE_PP0P__149
*1848 vscheudler1\.blockval\[1\]\$_SDFFE_PP0P__150
*1849 vscheudler1\.blockval\[2\]\$_SDFFE_PP0P__151
*1850 vscheudler1\.blockval\[3\]\$_SDFFE_PP0P__152
*1851 vscheudler1\.blockval\[4\]\$_SDFFE_PP0P__153
*1852 vscheudler1\.borderreg\$_SDFFE_PP0P__154
*1853 vscheudler1\.started\$_SDFFE_PP0N__155
*1854 vscheudler2\.blockline\[0\]\$_SDFFE_PP1P__156
*1855 vscheudler2\.blockline\[1\]\$_SDFFE_PP1P__157
*1856 vscheudler2\.blockline\[2\]\$_SDFFE_PP1P__158
*1857 vscheudler2\.blockline\[3\]\$_SDFFE_PP0P__159
*1858 vscheudler2\.blockline\[4\]\$_SDFFE_PP0P__160
*1859 vscheudler2\.blockval\[0\]\$_SDFFE_PP0P__161
*1860 vscheudler2\.blockval\[1\]\$_SDFFE_PP0P__162