*SPEF "ieee 1481-1999"
*DESIGN "tt_um_urish_giant_ringosc"
*DATE "08:25:43 Sunday November 03, 2024"
*VENDOR "The OpenROAD Project"
*PROGRAM "OpenROAD"
*VERSION "v2.0-16649-g40811f37f"
*DESIGN_FLOW "NAME_SCOPE LOCAL" "PIN_CAP NONE"
*DIVIDER /
*DELIMITER :
*BUS_DELIMITER []
*T_UNIT 1 NS
*C_UNIT 1 PF
*R_UNIT 1 OHM
*L_UNIT 1 HENRY

*NAME_MAP
*2 net18
*3 clk
*4 ena
*5 inv_in\[1000\]
*6 inv_in\[1001\]
*7 inv_in\[1002\]
*8 inv_in\[1003\]
*9 inv_in\[1004\]
*10 inv_in\[1005\]
*11 inv_in\[1006\]
*12 inv_in\[1007\]
*13 inv_in\[1008\]
*14 inv_in\[1009\]
*15 inv_in\[100\]
*16 inv_in\[1010\]
*17 inv_in\[1011\]
*18 inv_in\[1012\]
*19 inv_in\[1013\]
*20 inv_in\[1014\]
*21 inv_in\[1015\]
*22 inv_in\[1016\]
*23 inv_in\[1017\]
*24 inv_in\[1018\]
*25 inv_in\[1019\]
*26 inv_in\[101\]
*27 inv_in\[1020\]
*28 inv_in\[1021\]
*29 inv_in\[1022\]
*30 inv_in\[1023\]
*31 inv_in\[1024\]
*32 inv_in\[1025\]
*33 inv_in\[1026\]
*34 inv_in\[1027\]
*35 inv_in\[1028\]
*36 inv_in\[1029\]
*37 inv_in\[102\]
*38 inv_in\[1030\]
*39 inv_in\[1031\]
*40 inv_in\[1032\]
*41 inv_in\[1033\]
*42 inv_in\[1034\]
*43 inv_in\[1035\]
*44 inv_in\[1036\]
*45 inv_in\[1037\]
*46 inv_in\[1038\]
*47 inv_in\[1039\]
*48 inv_in\[103\]
*49 inv_in\[1040\]
*50 inv_in\[1041\]
*51 inv_in\[1042\]
*52 inv_in\[1043\]
*53 inv_in\[1044\]
*54 inv_in\[1045\]
*55 inv_in\[1046\]
*56 inv_in\[1047\]
*57 inv_in\[1048\]
*58 inv_in\[1049\]
*59 inv_in\[104\]
*60 inv_in\[1050\]
*61 inv_in\[1051\]
*62 inv_in\[1052\]
*63 inv_in\[1053\]
*64 inv_in\[1054\]
*65 inv_in\[1055\]
*66 inv_in\[1056\]
*67 inv_in\[1057\]
*68 inv_in\[1058\]
*69 inv_in\[1059\]
*70 inv_in\[105\]
*71 inv_in\[1060\]
*72 inv_in\[1061\]
*73 inv_in\[1062\]
*74 inv_in\[1063\]
*75 inv_in\[1064\]
*76 inv_in\[1065\]
*77 inv_in\[1066\]
*78 inv_in\[1067\]
*79 inv_in\[1068\]
*80 inv_in\[1069\]
*81 inv_in\[106\]
*82 inv_in\[1070\]
*83 inv_in\[1071\]
*84 inv_in\[1072\]
*85 inv_in\[1073\]
*86 inv_in\[1074\]
*87 inv_in\[1075\]
*88 inv_in\[1076\]
*89 inv_in\[1077\]
*90 inv_in\[1078\]
*91 inv_in\[1079\]
*92 inv_in\[107\]
*93 inv_in\[1080\]
*94 inv_in\[1081\]
*95 inv_in\[1082\]
*96 inv_in\[1083\]
*97 inv_in\[1084\]
*98 inv_in\[1085\]
*99 inv_in\[1086\]
*100 inv_in\[1087\]
*101 inv_in\[1088\]
*102 inv_in\[1089\]
*103 inv_in\[108\]
*104 inv_in\[1090\]
*105 inv_in\[1091\]
*106 inv_in\[1092\]
*107 inv_in\[1093\]
*108 inv_in\[1094\]
*109 inv_in\[1095\]
*110 inv_in\[1096\]
*111 inv_in\[1097\]
*112 inv_in\[1098\]
*113 inv_in\[1099\]
*114 inv_in\[109\]
*115 inv_in\[10\]
*116 inv_in\[1100\]
*117 inv_in\[1101\]
*118 inv_in\[1102\]
*119 inv_in\[1103\]
*120 inv_in\[1104\]
*121 inv_in\[1105\]
*122 inv_in\[1106\]
*123 inv_in\[1107\]
*124 inv_in\[1108\]
*125 inv_in\[1109\]
*126 inv_in\[110\]
*127 inv_in\[1110\]
*128 inv_in\[1111\]
*129 inv_in\[1112\]
*130 inv_in\[1113\]
*131 inv_in\[1114\]
*132 inv_in\[1115\]
*133 inv_in\[1116\]
*134 inv_in\[1117\]
*135 inv_in\[1118\]
*136 inv_in\[1119\]
*137 inv_in\[111\]
*138 inv_in\[1120\]
*139 inv_in\[1121\]
*140 inv_in\[1122\]
*141 inv_in\[1123\]
*142 inv_in\[1124\]
*143 inv_in\[1125\]
*144 inv_in\[1126\]
*145 inv_in\[1127\]
*146 inv_in\[1128\]
*147 inv_in\[1129\]
*148 inv_in\[112\]
*149 inv_in\[1130\]
*150 inv_in\[1131\]
*151 inv_in\[1132\]
*152 inv_in\[1133\]
*153 inv_in\[1134\]
*154 inv_in\[1135\]
*155 inv_in\[1136\]
*156 inv_in\[1137\]
*157 inv_in\[1138\]
*158 inv_in\[1139\]
*159 inv_in\[113\]
*160 inv_in\[1140\]
*161 inv_in\[1141\]
*162 inv_in\[1142\]
*163 inv_in\[1143\]
*164 inv_in\[1144\]
*165 inv_in\[1145\]
*166 inv_in\[1146\]
*167 inv_in\[1147\]
*168 inv_in\[1148\]
*169 inv_in\[1149\]
*170 inv_in\[114\]
*171 inv_in\[1150\]
*172 inv_in\[1151\]
*173 inv_in\[1152\]
*174 inv_in\[1153\]
*175 inv_in\[1154\]
*176 inv_in\[1155\]
*177 inv_in\[1156\]
*178 inv_in\[1157\]
*179 inv_in\[1158\]
*180 inv_in\[1159\]
*181 inv_in\[115\]
*182 inv_in\[1160\]
*183 inv_in\[1161\]
*184 inv_in\[1162\]
*185 inv_in\[1163\]
*186 inv_in\[1164\]
*187 inv_in\[1165\]
*188 inv_in\[1166\]
*189 inv_in\[1167\]
*190 inv_in\[1168\]
*191 inv_in\[1169\]
*192 inv_in\[116\]
*193 inv_in\[1170\]
*194 inv_in\[1171\]
*195 inv_in\[1172\]
*196 inv_in\[1173\]
*197 inv_in\[1174\]
*198 inv_in\[1175\]
*199 inv_in\[1176\]
*200 inv_in\[1177\]
*201 inv_in\[1178\]
*202 inv_in\[1179\]
*203 inv_in\[117\]
*204 inv_in\[1180\]
*205 inv_in\[1181\]
*206 inv_in\[1182\]
*207 inv_in\[1183\]
*208 inv_in\[1184\]
*209 inv_in\[1185\]
*210 inv_in\[1186\]
*211 inv_in\[1187\]
*212 inv_in\[1188\]
*213 inv_in\[1189\]
*214 inv_in\[118\]
*215 inv_in\[1190\]
*216 inv_in\[1191\]
*217 inv_in\[1192\]
*218 inv_in\[1193\]
*219 inv_in\[1194\]
*220 inv_in\[1195\]
*221 inv_in\[1196\]
*222 inv_in\[1197\]
*223 inv_in\[1198\]
*224 inv_in\[1199\]
*225 inv_in\[119\]
*226 inv_in\[11\]
*227 inv_in\[1200\]
*228 inv_in\[1201\]
*229 inv_in\[1202\]
*230 inv_in\[1203\]
*231 inv_in\[1204\]
*232 inv_in\[1205\]
*233 inv_in\[1206\]
*234 inv_in\[1207\]
*235 inv_in\[1208\]
*236 inv_in\[1209\]
*237 inv_in\[120\]
*238 inv_in\[1210\]
*239 inv_in\[1211\]
*240 inv_in\[1212\]
*241 inv_in\[1213\]
*242 inv_in\[1214\]
*243 inv_in\[1215\]
*244 inv_in\[1216\]
*245 inv_in\[1217\]
*246 inv_in\[1218\]
*247 inv_in\[1219\]
*248 inv_in\[121\]
*249 inv_in\[1220\]
*250 inv_in\[1221\]
*251 inv_in\[1222\]
*252 inv_in\[1223\]
*253 inv_in\[1224\]
*254 inv_in\[1225\]
*255 inv_in\[1226\]
*256 inv_in\[1227\]
*257 inv_in\[1228\]
*258 inv_in\[1229\]
*259 inv_in\[122\]
*260 inv_in\[1230\]
*261 inv_in\[1231\]
*262 inv_in\[1232\]
*263 inv_in\[1233\]
*264 inv_in\[1234\]
*265 inv_in\[1235\]
*266 inv_in\[1236\]
*267 inv_in\[1237\]
*268 inv_in\[1238\]
*269 inv_in\[1239\]
*270 inv_in\[123\]
*271 inv_in\[1240\]
*272 inv_in\[1241\]
*273 inv_in\[1242\]
*274 inv_in\[1243\]
*275 inv_in\[1244\]
*276 inv_in\[1245\]
*277 inv_in\[1246\]
*278 inv_in\[1247\]
*279 inv_in\[1248\]
*280 inv_in\[1249\]
*281 inv_in\[124\]
*282 inv_in\[1250\]
*283 inv_in\[1251\]
*284 inv_in\[1252\]
*285 inv_in\[1253\]
*286 inv_in\[1254\]
*287 inv_in\[1255\]
*288 inv_in\[1256\]
*289 inv_in\[1257\]
*290 inv_in\[1258\]
*291 inv_in\[1259\]
*292 inv_in\[125\]
*293 inv_in\[1260\]
*294 inv_in\[1261\]
*295 inv_in\[1262\]
*296 inv_in\[1263\]
*297 inv_in\[1264\]
*298 inv_in\[1265\]
*299 inv_in\[1266\]
*300 inv_in\[1267\]
*301 inv_in\[1268\]
*302 inv_in\[1269\]
*303 inv_in\[126\]
*304 inv_in\[1270\]
*305 inv_in\[1271\]
*306 inv_in\[1272\]
*307 inv_in\[1273\]
*308 inv_in\[1274\]
*309 inv_in\[1275\]
*310 inv_in\[1276\]
*311 inv_in\[1277\]
*312 inv_in\[1278\]
*313 inv_in\[1279\]
*314 inv_in\[127\]
*315 inv_in\[1280\]
*316 inv_in\[1281\]
*317 inv_in\[1282\]
*318 inv_in\[1283\]
*319 inv_in\[1284\]
*320 inv_in\[1285\]
*321 inv_in\[1286\]
*322 inv_in\[1287\]
*323 inv_in\[1288\]
*324 inv_in\[1289\]
*325 inv_in\[128\]
*326 inv_in\[1290\]
*327 inv_in\[1291\]
*328 inv_in\[1292\]
*329 inv_in\[1293\]
*330 inv_in\[1294\]
*331 inv_in\[1295\]
*332 inv_in\[1296\]
*333 inv_in\[1297\]
*334 inv_in\[1298\]
*335 inv_in\[1299\]
*336 inv_in\[129\]
*337 inv_in\[12\]
*338 inv_in\[1300\]
*339 inv_in\[1301\]
*340 inv_in\[1302\]
*341 inv_in\[1303\]
*342 inv_in\[1304\]
*343 inv_in\[1305\]
*344 inv_in\[1306\]
*345 inv_in\[1307\]
*346 inv_in\[1308\]
*347 inv_in\[1309\]
*348 inv_in\[130\]
*349 inv_in\[1310\]
*350 inv_in\[1311\]
*351 inv_in\[1312\]
*352 inv_in\[1313\]
*353 inv_in\[1314\]
*354 inv_in\[1315\]
*355 inv_in\[1316\]
*356 inv_in\[1317\]
*357 inv_in\[1318\]
*358 inv_in\[1319\]
*359 inv_in\[131\]
*360 inv_in\[1320\]
*361 inv_in\[1321\]
*362 inv_in\[1322\]
*363 inv_in\[1323\]
*364 inv_in\[1324\]
*365 inv_in\[1325\]
*366 inv_in\[1326\]
*367 inv_in\[1327\]
*368 inv_in\[1328\]
*369 inv_in\[1329\]
*370 inv_in\[132\]
*371 inv_in\[1330\]
*372 inv_in\[1331\]
*373 inv_in\[1332\]
*374 inv_in\[1333\]
*375 inv_in\[1334\]
*376 inv_in\[1335\]
*377 inv_in\[1336\]
*378 inv_in\[1337\]
*379 inv_in\[1338\]
*380 inv_in\[1339\]
*381 inv_in\[133\]
*382 inv_in\[1340\]
*383 inv_in\[1341\]
*384 inv_in\[1342\]
*385 inv_in\[1343\]
*386 inv_in\[1344\]
*387 inv_in\[1345\]
*388 inv_in\[1346\]
*389 inv_in\[1347\]
*390 inv_in\[1348\]
*391 inv_in\[1349\]
*392 inv_in\[134\]
*393 inv_in\[1350\]
*394 inv_in\[1351\]
*395 inv_in\[1352\]
*396 inv_in\[1353\]
*397 inv_in\[1354\]
*398 inv_in\[1355\]
*399 inv_in\[1356\]
*400 inv_in\[1357\]
*401 inv_in\[1358\]
*402 inv_in\[1359\]
*403 inv_in\[135\]
*404 inv_in\[1360\]
*405 inv_in\[1361\]
*406 inv_in\[1362\]
*407 inv_in\[1363\]
*408 inv_in\[1364\]
*409 inv_in\[1365\]
*410 inv_in\[1366\]
*411 inv_in\[1367\]
*412 inv_in\[1368\]
*413 inv_in\[1369\]
*414 inv_in\[136\]
*415 inv_in\[1370\]
*416 inv_in\[1371\]
*417 inv_in\[1372\]
*418 inv_in\[1373\]
*419 inv_in\[1374\]
*420 inv_in\[1375\]
*421 inv_in\[1376\]
*422 inv_in\[1377\]
*423 inv_in\[1378\]
*424 inv_in\[1379\]
*425 inv_in\[137\]
*426 inv_in\[1380\]
*427 inv_in\[1381\]
*428 inv_in\[1382\]
*429 inv_in\[1383\]
*430 inv_in\[1384\]
*431 inv_in\[1385\]
*432 inv_in\[1386\]
*433 inv_in\[1387\]
*434 inv_in\[1388\]
*435 inv_in\[1389\]
*436 inv_in\[138\]
*437 inv_in\[1390\]
*438 inv_in\[1391\]
*439 inv_in\[1392\]
*440 inv_in\[1393\]
*441 inv_in\[1394\]
*442 inv_in\[1395\]
*443 inv_in\[1396\]
*444 inv_in\[1397\]
*445 inv_in\[1398\]
*446 inv_in\[1399\]
*447 inv_in\[139\]
*448 inv_in\[13\]
*449 inv_in\[1400\]
*450 inv_in\[1401\]
*451 inv_in\[1402\]
*452 inv_in\[1403\]
*453 inv_in\[1404\]
*454 inv_in\[1405\]
*455 inv_in\[1406\]
*456 inv_in\[1407\]
*457 inv_in\[1408\]
*458 inv_in\[1409\]
*459 inv_in\[140\]
*460 inv_in\[1410\]
*461 inv_in\[1411\]
*462 inv_in\[1412\]
*463 inv_in\[1413\]
*464 inv_in\[1414\]
*465 inv_in\[1415\]
*466 inv_in\[1416\]
*467 inv_in\[1417\]
*468 inv_in\[1418\]
*469 inv_in\[1419\]
*470 inv_in\[141\]
*471 inv_in\[1420\]
*472 inv_in\[1421\]
*473 inv_in\[1422\]
*474 inv_in\[1423\]
*475 inv_in\[1424\]
*476 inv_in\[1425\]
*477 inv_in\[1426\]
*478 inv_in\[1427\]
*479 inv_in\[1428\]
*480 inv_in\[1429\]
*481 inv_in\[142\]
*482 inv_in\[1430\]
*483 inv_in\[1431\]
*484 inv_in\[1432\]
*485 inv_in\[1433\]
*486 inv_in\[1434\]
*487 inv_in\[1435\]
*488 inv_in\[1436\]
*489 inv_in\[1437\]
*490 inv_in\[1438\]
*491 inv_in\[1439\]
*492 inv_in\[143\]
*493 inv_in\[1440\]
*494 inv_in\[1441\]
*495 inv_in\[1442\]
*496 inv_in\[1443\]
*497 inv_in\[1444\]
*498 inv_in\[1445\]
*499 inv_in\[1446\]
*500 inv_in\[1447\]
*501 inv_in\[1448\]
*502 inv_in\[1449\]
*503 inv_in\[144\]
*504 inv_in\[1450\]
*505 inv_in\[1451\]
*506 inv_in\[1452\]
*507 inv_in\[1453\]
*508 inv_in\[1454\]
*509 inv_in\[1455\]
*510 inv_in\[1456\]
*511 inv_in\[1457\]
*512 inv_in\[1458\]
*513 inv_in\[1459\]
*514 inv_in\[145\]
*515 inv_in\[1460\]
*516 inv_in\[1461\]
*517 inv_in\[1462\]
*518 inv_in\[1463\]
*519 inv_in\[1464\]
*520 inv_in\[1465\]
*521 inv_in\[1466\]
*522 inv_in\[1467\]
*523 inv_in\[1468\]
*524 inv_in\[1469\]
*525 inv_in\[146\]
*526 inv_in\[1470\]
*527 inv_in\[1471\]
*528 inv_in\[1472\]
*529 inv_in\[1473\]
*530 inv_in\[1474\]
*531 inv_in\[1475\]
*532 inv_in\[1476\]
*533 inv_in\[1477\]
*534 inv_in\[1478\]
*535 inv_in\[1479\]
*536 inv_in\[147\]
*537 inv_in\[1480\]
*538 inv_in\[1481\]
*539 inv_in\[1482\]
*540 inv_in\[1483\]
*541 inv_in\[1484\]
*542 inv_in\[1485\]
*543 inv_in\[1486\]
*544 inv_in\[1487\]
*545 inv_in\[1488\]
*546 inv_in\[1489\]
*547 inv_in\[148\]
*548 inv_in\[1490\]
*549 inv_in\[1491\]
*550 inv_in\[1492\]
*551 inv_in\[1493\]
*552 inv_in\[1494\]
*553 inv_in\[1495\]
*554 inv_in\[1496\]
*555 inv_in\[1497\]
*556 inv_in\[1498\]
*557 inv_in\[1499\]
*558 inv_in\[149\]
*559 inv_in\[14\]
*560 inv_in\[1500\]
*561 inv_in\[1501\]
*562 inv_in\[1502\]
*563 inv_in\[1503\]
*564 inv_in\[1504\]
*565 inv_in\[1505\]
*566 inv_in\[1506\]
*567 inv_in\[1507\]
*568 inv_in\[1508\]
*569 inv_in\[1509\]
*570 inv_in\[150\]
*571 inv_in\[1510\]
*572 inv_in\[1511\]
*573 inv_in\[1512\]
*574 inv_in\[1513\]
*575 inv_in\[1514\]
*576 inv_in\[1515\]
*577 inv_in\[1516\]
*578 inv_in\[1517\]
*579 inv_in\[1518\]
*580 inv_in\[1519\]
*581 inv_in\[151\]
*582 inv_in\[1520\]
*583 inv_in\[1521\]
*584 inv_in\[1522\]
*585 inv_in\[1523\]
*586 inv_in\[1524\]
*587 inv_in\[1525\]
*588 inv_in\[1526\]
*589 inv_in\[1527\]
*590 inv_in\[1528\]
*591 inv_in\[1529\]
*592 inv_in\[152\]
*593 inv_in\[1530\]
*594 inv_in\[1531\]
*595 inv_in\[1532\]
*596 inv_in\[1533\]
*597 inv_in\[1534\]
*598 inv_in\[1535\]
*599 inv_in\[1536\]
*600 inv_in\[1537\]
*601 inv_in\[1538\]
*602 inv_in\[1539\]
*603 inv_in\[153\]
*604 inv_in\[1540\]
*605 inv_in\[1541\]
*606 inv_in\[1542\]
*607 inv_in\[1543\]
*608 inv_in\[1544\]
*609 inv_in\[1545\]
*610 inv_in\[1546\]
*611 inv_in\[1547\]
*612 inv_in\[1548\]
*613 inv_in\[1549\]
*614 inv_in\[154\]
*615 inv_in\[1550\]
*616 inv_in\[1551\]
*617 inv_in\[1552\]
*618 inv_in\[1553\]
*619 inv_in\[1554\]
*620 inv_in\[1555\]
*621 inv_in\[1556\]
*622 inv_in\[1557\]
*623 inv_in\[1558\]
*624 inv_in\[1559\]
*625 inv_in\[155\]
*626 inv_in\[1560\]
*627 inv_in\[1561\]
*628 inv_in\[1562\]
*629 inv_in\[1563\]
*630 inv_in\[1564\]
*631 inv_in\[1565\]
*632 inv_in\[1566\]
*633 inv_in\[1567\]
*634 inv_in\[1568\]
*635 inv_in\[1569\]
*636 inv_in\[156\]
*637 inv_in\[1570\]
*638 inv_in\[1571\]
*639 inv_in\[1572\]
*640 inv_in\[1573\]
*641 inv_in\[1574\]
*642 inv_in\[1575\]
*643 inv_in\[1576\]
*644 inv_in\[1577\]
*645 inv_in\[1578\]
*646 inv_in\[1579\]
*647 inv_in\[157\]
*648 inv_in\[1580\]
*649 inv_in\[1581\]
*650 inv_in\[1582\]
*651 inv_in\[1583\]
*652 inv_in\[1584\]
*653 inv_in\[1585\]
*654 inv_in\[1586\]
*655 inv_in\[1587\]
*656 inv_in\[1588\]
*657 inv_in\[1589\]
*658 inv_in\[158\]
*659 inv_in\[1590\]
*660 inv_in\[1591\]
*661 inv_in\[1592\]
*662 inv_in\[1593\]
*663 inv_in\[1594\]
*664 inv_in\[1595\]
*665 inv_in\[1596\]
*666 inv_in\[1597\]
*667 inv_in\[1598\]
*668 inv_in\[1599\]
*669 inv_in\[159\]
*670 inv_in\[15\]
*671 inv_in\[1600\]
*672 inv_in\[1601\]
*673 inv_in\[1602\]
*674 inv_in\[1603\]
*675 inv_in\[1604\]
*676 inv_in\[1605\]
*677 inv_in\[1606\]
*678 inv_in\[1607\]
*679 inv_in\[1608\]
*680 inv_in\[1609\]
*681 inv_in\[160\]
*682 inv_in\[1610\]
*683 inv_in\[1611\]
*684 inv_in\[1612\]
*685 inv_in\[1613\]
*686 inv_in\[1614\]
*687 inv_in\[1615\]
*688 inv_in\[1616\]
*689 inv_in\[1617\]
*690 inv_in\[1618\]
*691 inv_in\[1619\]
*692 inv_in\[161\]
*693 inv_in\[1620\]
*694 inv_in\[1621\]
*695 inv_in\[1622\]
*696 inv_in\[1623\]
*697 inv_in\[1624\]
*698 inv_in\[1625\]
*699 inv_in\[1626\]
*700 inv_in\[1627\]
*701 inv_in\[1628\]
*702 inv_in\[1629\]
*703 inv_in\[162\]
*704 inv_in\[1630\]
*705 inv_in\[1631\]
*706 inv_in\[1632\]
*707 inv_in\[1633\]
*708 inv_in\[1634\]
*709 inv_in\[1635\]
*710 inv_in\[1636\]
*711 inv_in\[1637\]
*712 inv_in\[1638\]
*713 inv_in\[1639\]
*714 inv_in\[163\]
*715 inv_in\[1640\]
*716 inv_in\[1641\]
*717 inv_in\[1642\]
*718 inv_in\[1643\]
*719 inv_in\[1644\]
*720 inv_in\[1645\]
*721 inv_in\[1646\]
*722 inv_in\[1647\]
*723 inv_in\[1648\]
*724 inv_in\[1649\]
*725 inv_in\[164\]
*726 inv_in\[1650\]
*727 inv_in\[1651\]
*728 inv_in\[1652\]
*729 inv_in\[1653\]
*730 inv_in\[1654\]
*731 inv_in\[1655\]
*732 inv_in\[1656\]
*733 inv_in\[1657\]
*734 inv_in\[1658\]
*735 inv_in\[1659\]
*736 inv_in\[165\]
*737 inv_in\[1660\]
*738 inv_in\[1661\]
*739 inv_in\[1662\]
*740 inv_in\[1663\]
*741 inv_in\[1664\]
*742 inv_in\[1665\]
*743 inv_in\[1666\]
*744 inv_in\[1667\]
*745 inv_in\[1668\]
*746 inv_in\[1669\]
*747 inv_in\[166\]
*748 inv_in\[1670\]
*749 inv_in\[1671\]
*750 inv_in\[1672\]
*751 inv_in\[1673\]
*752 inv_in\[1674\]
*753 inv_in\[1675\]
*754 inv_in\[1676\]
*755 inv_in\[1677\]
*756 inv_in\[1678\]
*757 inv_in\[1679\]
*758 inv_in\[167\]
*759 inv_in\[1680\]
*760 inv_in\[1681\]
*761 inv_in\[1682\]
*762 inv_in\[1683\]
*763 inv_in\[1684\]
*764 inv_in\[1685\]
*765 inv_in\[1686\]
*766 inv_in\[1687\]
*767 inv_in\[1688\]
*768 inv_in\[1689\]
*769 inv_in\[168\]
*770 inv_in\[1690\]
*771 inv_in\[1691\]
*772 inv_in\[1692\]
*773 inv_in\[1693\]
*774 inv_in\[1694\]
*775 inv_in\[1695\]
*776 inv_in\[1696\]
*777 inv_in\[1697\]
*778 inv_in\[1698\]
*779 inv_in\[1699\]
*780 inv_in\[169\]
*781 inv_in\[16\]
*782 inv_in\[1700\]
*783 inv_in\[1701\]
*784 inv_in\[1702\]
*785 inv_in\[1703\]
*786 inv_in\[1704\]
*787 inv_in\[1705\]
*788 inv_in\[1706\]
*789 inv_in\[1707\]
*790 inv_in\[1708\]
*791 inv_in\[1709\]
*792 inv_in\[170\]
*793 inv_in\[1710\]
*794 inv_in\[1711\]
*795 inv_in\[1712\]
*796 inv_in\[1713\]
*797 inv_in\[1714\]
*798 inv_in\[1715\]
*799 inv_in\[1716\]
*800 inv_in\[1717\]
*801 inv_in\[1718\]
*802 inv_in\[1719\]
*803 inv_in\[171\]
*804 inv_in\[1720\]
*805 inv_in\[1721\]
*806 inv_in\[1722\]
*807 inv_in\[1723\]
*808 inv_in\[1724\]
*809 inv_in\[1725\]
*810 inv_in\[1726\]
*811 inv_in\[1727\]
*812 inv_in\[1728\]
*813 inv_in\[1729\]
*814 inv_in\[172\]
*815 inv_in\[1730\]
*816 inv_in\[1731\]
*817 inv_in\[1732\]
*818 inv_in\[1733\]
*819 inv_in\[1734\]
*820 inv_in\[1735\]
*821 inv_in\[1736\]
*822 inv_in\[1737\]
*823 inv_in\[1738\]
*824 inv_in\[1739\]
*825 inv_in\[173\]
*826 inv_in\[1740\]
*827 inv_in\[1741\]
*828 inv_in\[1742\]
*829 inv_in\[1743\]
*830 inv_in\[1744\]
*831 inv_in\[1745\]
*832 inv_in\[1746\]
*833 inv_in\[1747\]
*834 inv_in\[1748\]
*835 inv_in\[1749\]
*836 inv_in\[174\]
*837 inv_in\[1750\]
*838 inv_in\[1751\]
*839 inv_in\[1752\]
*840 inv_in\[1753\]
*841 inv_in\[1754\]
*842 inv_in\[1755\]
*843 inv_in\[1756\]
*844 inv_in\[1757\]
*845 inv_in\[1758\]
*846 inv_in\[1759\]
*847 inv_in\[175\]
*848 inv_in\[1760\]
*849 inv_in\[1761\]
*850 inv_in\[1762\]
*851 inv_in\[1763\]
*852 inv_in\[1764\]
*853 inv_in\[1765\]
*854 inv_in\[1766\]
*855 inv_in\[1767\]
*856 inv_in\[1768\]
*857 inv_in\[1769\]
*858 inv_in\[176\]
*859 inv_in\[1770\]
*860 inv_in\[1771\]
*861 inv_in\[1772\]
*862 inv_in\[1773\]
*863 inv_in\[1774\]
*864 inv_in\[1775\]
*865 inv_in\[1776\]
*866 inv_in\[1777\]
*867 inv_in\[1778\]
*868 inv_in\[1779\]
*869 inv_in\[177\]
*870 inv_in\[1780\]
*871 inv_in\[1781\]
*872 inv_in\[1782\]
*873 inv_in\[1783\]
*874 inv_in\[1784\]
*875 inv_in\[1785\]
*876 inv_in\[1786\]
*877 inv_in\[1787\]
*878 inv_in\[1788\]
*879 inv_in\[1789\]
*880 inv_in\[178\]
*881 inv_in\[1790\]
*882 inv_in\[1791\]
*883 inv_in\[1792\]
*884 inv_in\[1793\]
*885 inv_in\[1794\]
*886 inv_in\[1795\]
*887 inv_in\[1796\]
*888 inv_in\[1797\]
*889 inv_in\[1798\]
*890 inv_in\[1799\]
*891 inv_in\[179\]
*892 inv_in\[17\]
*893 inv_in\[1800\]
*894 inv_in\[1801\]
*895 inv_in\[1802\]
*896 inv_in\[1803\]
*897 inv_in\[1804\]
*898 inv_in\[1805\]
*899 inv_in\[1806\]
*900 inv_in\[1807\]
*901 inv_in\[1808\]
*902 inv_in\[1809\]
*903 inv_in\[180\]
*904 inv_in\[1810\]
*905 inv_in\[1811\]
*906 inv_in\[1812\]
*907 inv_in\[1813\]
*908 inv_in\[1814\]
*909 inv_in\[1815\]
*910 inv_in\[1816\]
*911 inv_in\[1817\]
*912 inv_in\[1818\]
*913 inv_in\[1819\]
*914 inv_in\[181\]
*915 inv_in\[1820\]
*916 inv_in\[1821\]
*917 inv_in\[1822\]
*918 inv_in\[1823\]
*919 inv_in\[1824\]
*920 inv_in\[1825\]
*921 inv_in\[1826\]
*922 inv_in\[1827\]
*923 inv_in\[1828\]
*924 inv_in\[1829\]
*925 inv_in\[182\]
*926 inv_in\[1830\]
*927 inv_in\[1831\]
*928 inv_in\[1832\]
*929 inv_in\[1833\]
*930 inv_in\[1834\]
*931 inv_in\[1835\]
*932 inv_in\[1836\]
*933 inv_in\[1837\]
*934 inv_in\[1838\]
*935 inv_in\[1839\]
*936 inv_in\[183\]
*937 inv_in\[1840\]
*938 inv_in\[1841\]
*939 inv_in\[1842\]
*940 inv_in\[1843\]
*941 inv_in\[1844\]
*942 inv_in\[1845\]
*943 inv_in\[1846\]
*944 inv_in\[1847\]
*945 inv_in\[1848\]
*946 inv_in\[1849\]
*947 inv_in\[184\]
*948 inv_in\[1850\]
*949 inv_in\[1851\]
*950 inv_in\[1852\]
*951 inv_in\[1853\]
*952 inv_in\[1854\]
*953 inv_in\[1855\]
*954 inv_in\[1856\]
*955 inv_in\[1857\]
*956 inv_in\[1858\]
*957 inv_in\[1859\]
*958 inv_in\[185\]
*959 inv_in\[1860\]
*960 inv_in\[1861\]
*961 inv_in\[1862\]
*962 inv_in\[1863\]
*963 inv_in\[1864\]
*964 inv_in\[1865\]
*965 inv_in\[1866\]
*966 inv_in\[1867\]
*967 inv_in\[1868\]
*968 inv_in\[1869\]
*969 inv_in\[186\]
*970 inv_in\[1870\]
*971 inv_in\[1871\]
*972 inv_in\[1872\]
*973 inv_in\[1873\]
*974 inv_in\[1874\]
*975 inv_in\[1875\]
*976 inv_in\[1876\]
*977 inv_in\[1877\]
*978 inv_in\[1878\]
*979 inv_in\[1879\]
*980 inv_in\[187\]
*981 inv_in\[1880\]
*982 inv_in\[1881\]
*983 inv_in\[1882\]
*984 inv_in\[1883\]
*985 inv_in\[1884\]
*986 inv_in\[1885\]
*987 inv_in\[1886\]
*988 inv_in\[1887\]
*989 inv_in\[1888\]
*990 inv_in\[1889\]
*991 inv_in\[188\]
*992 inv_in\[1890\]
*993 inv_in\[1891\]
*994 inv_in\[1892\]
*995 inv_in\[1893\]
*996 inv_in\[1894\]
*997 inv_in\[1895\]
*998 inv_in\[1896\]
*999 inv_in\[1897\]
*1000 inv_in\[1898\]
*1001 inv_in\[1899\]
*1002 inv_in\[189\]
*1003 inv_in\[18\]
*1004 inv_in\[1900\]
*1005 inv_in\[1901\]
*1006 inv_in\[1902\]
*1007 inv_in\[1903\]
*1008 inv_in\[1904\]
*1009 inv_in\[1905\]
*1010 inv_in\[1906\]
*1011 inv_in\[1907\]
*1012 inv_in\[1908\]
*1013 inv_in\[1909\]
*1014 inv_in\[190\]
*1015 inv_in\[1910\]
*1016 inv_in\[1911\]
*1017 inv_in\[1912\]
*1018 inv_in\[1913\]
*1019 inv_in\[1914\]
*1020 inv_in\[1915\]
*1021 inv_in\[1916\]
*1022 inv_in\[1917\]
*1023 inv_in\[1918\]
*1024 inv_in\[1919\]
*1025 inv_in\[191\]
*1026 inv_in\[1920\]
*1027 inv_in\[1921\]
*1028 inv_in\[1922\]
*1029 inv_in\[1923\]
*1030 inv_in\[1924\]
*1031 inv_in\[1925\]
*1032 inv_in\[1926\]
*1033 inv_in\[1927\]
*1034 inv_in\[1928\]
*1035 inv_in\[1929\]
*1036 inv_in\[192\]
*1037 inv_in\[1930\]
*1038 inv_in\[1931\]
*1039 inv_in\[1932\]
*1040 inv_in\[1933\]
*1041 inv_in\[1934\]
*1042 inv_in\[1935\]
*1043 inv_in\[1936\]
*1044 inv_in\[1937\]
*1045 inv_in\[1938\]
*1046 inv_in\[1939\]
*1047 inv_in\[193\]
*1048 inv_in\[1940\]
*1049 inv_in\[1941\]
*1050 inv_in\[1942\]
*1051 inv_in\[1943\]
*1052 inv_in\[1944\]
*1053 inv_in\[1945\]
*1054 inv_in\[1946\]
*1055 inv_in\[1947\]
*1056 inv_in\[1948\]
*1057 inv_in\[1949\]
*1058 inv_in\[194\]
*1059 inv_in\[1950\]
*1060 inv_in\[1951\]
*1061 inv_in\[1952\]
*1062 inv_in\[1953\]
*1063 inv_in\[1954\]
*1064 inv_in\[1955\]
*1065 inv_in\[1956\]
*1066 inv_in\[1957\]
*1067 inv_in\[1958\]
*1068 inv_in\[1959\]
*1069 inv_in\[195\]
*1070 inv_in\[1960\]
*1071 inv_in\[1961\]
*1072 inv_in\[1962\]
*1073 inv_in\[1963\]
*1074 inv_in\[1964\]
*1075 inv_in\[1965\]
*1076 inv_in\[1966\]
*1077 inv_in\[1967\]
*1078 inv_in\[1968\]
*1079 inv_in\[1969\]
*1080 inv_in\[196\]
*1081 inv_in\[1970\]
*1082 inv_in\[1971\]
*1083 inv_in\[1972\]
*1084 inv_in\[1973\]
*1085 inv_in\[1974\]
*1086 inv_in\[1975\]
*1087 inv_in\[1976\]
*1088 inv_in\[1977\]
*1089 inv_in\[1978\]
*1090 inv_in\[1979\]
*1091 inv_in\[197\]
*1092 inv_in\[1980\]
*1093 inv_in\[1981\]
*1094 inv_in\[1982\]
*1095 inv_in\[1983\]
*1096 inv_in\[1984\]
*1097 inv_in\[1985\]
*1098 inv_in\[1986\]
*1099 inv_in\[1987\]
*1100 inv_in\[1988\]
*1101 inv_in\[1989\]
*1102 inv_in\[198\]
*1103 inv_in\[1990\]
*1104 inv_in\[1991\]
*1105 inv_in\[1992\]
*1106 inv_in\[1993\]
*1107 inv_in\[1994\]
*1108 inv_in\[1995\]
*1109 inv_in\[1996\]
*1110 inv_in\[1997\]
*1111 inv_in\[1998\]
*1112 inv_in\[1999\]
*1113 inv_in\[199\]
*1114 inv_in\[19\]
*1115 inv_in\[1\]
*1116 inv_in\[2000\]
*1117 inv_in\[2001\]
*1118 inv_in\[2002\]
*1119 inv_in\[2003\]
*1120 inv_in\[2004\]
*1121 inv_in\[2005\]
*1122 inv_in\[2006\]
*1123 inv_in\[2007\]
*1124 inv_in\[2008\]
*1125 inv_in\[2009\]
*1126 inv_in\[200\]
*1127 inv_in\[2010\]
*1128 inv_in\[2011\]
*1129 inv_in\[2012\]
*1130 inv_in\[2013\]
*1131 inv_in\[2014\]
*1132 inv_in\[2015\]
*1133 inv_in\[2016\]
*1134 inv_in\[2017\]
*1135 inv_in\[2018\]
*1136 inv_in\[2019\]
*1137 inv_in\[201\]
*1138 inv_in\[2020\]
*1139 inv_in\[2021\]
*1140 inv_in\[2022\]
*1141 inv_in\[2023\]
*1142 inv_in\[2024\]
*1143 inv_in\[2025\]
*1144 inv_in\[2026\]
*1145 inv_in\[2027\]
*1146 inv_in\[2028\]
*1147 inv_in\[2029\]
*1148 inv_in\[202\]
*1149 inv_in\[2030\]
*1150 inv_in\[2031\]
*1151 inv_in\[2032\]
*1152 inv_in\[2033\]
*1153 inv_in\[2034\]
*1154 inv_in\[2035\]
*1155 inv_in\[2036\]
*1156 inv_in\[2037\]
*1157 inv_in\[2038\]
*1158 inv_in\[2039\]
*1159 inv_in\[203\]
*1160 inv_in\[2040\]
*1161 inv_in\[2041\]
*1162 inv_in\[2042\]
*1163 inv_in\[2043\]
*1164 inv_in\[2044\]
*1165 inv_in\[2045\]
*1166 inv_in\[2046\]
*1167 inv_in\[2047\]
*1168 inv_in\[2048\]
*1169 inv_in\[2049\]
*1170 inv_in\[204\]
*1171 inv_in\[2050\]
*1172 inv_in\[2051\]
*1173 inv_in\[2052\]
*1174 inv_in\[2053\]
*1175 inv_in\[2054\]
*1176 inv_in\[2055\]
*1177 inv_in\[2056\]
*1178 inv_in\[2057\]
*1179 inv_in\[2058\]
*1180 inv_in\[2059\]
*1181 inv_in\[205\]
*1182 inv_in\[2060\]
*1183 inv_in\[2061\]
*1184 inv_in\[2062\]
*1185 inv_in\[2063\]
*1186 inv_in\[2064\]
*1187 inv_in\[2065\]
*1188 inv_in\[2066\]
*1189 inv_in\[2067\]
*1190 inv_in\[2068\]
*1191 inv_in\[2069\]
*1192 inv_in\[206\]
*1193 inv_in\[2070\]
*1194 inv_in\[2071\]
*1195 inv_in\[2072\]
*1196 inv_in\[2073\]
*1197 inv_in\[2074\]
*1198 inv_in\[2075\]
*1199 inv_in\[2076\]
*1200 inv_in\[2077\]
*1201 inv_in\[2078\]
*1202 inv_in\[2079\]
*1203 inv_in\[207\]
*1204 inv_in\[2080\]
*1205 inv_in\[2081\]
*1206 inv_in\[2082\]
*1207 inv_in\[2083\]
*1208 inv_in\[2084\]
*1209 inv_in\[2085\]
*1210 inv_in\[2086\]
*1211 inv_in\[2087\]
*1212 inv_in\[2088\]
*1213 inv_in\[2089\]
*1214 inv_in\[208\]
*1215 inv_in\[2090\]
*1216 inv_in\[2091\]
*1217 inv_in\[2092\]
*1218 inv_in\[2093\]
*1219 inv_in\[2094\]
*1220 inv_in\[2095\]
*1221 inv_in\[2096\]
*1222 inv_in\[2097\]
*1223 inv_in\[2098\]
*1224 inv_in\[2099\]
*1225 inv_in\[209\]
*1226 inv_in\[20\]
*1227 inv_in\[2100\]
*1228 inv_in\[2101\]
*1229 inv_in\[2102\]
*1230 inv_in\[2103\]
*1231 inv_in\[2104\]
*1232 inv_in\[2105\]
*1233 inv_in\[2106\]
*1234 inv_in\[2107\]
*1235 inv_in\[2108\]
*1236 inv_in\[2109\]
*1237 inv_in\[210\]
*1238 inv_in\[2110\]
*1239 inv_in\[2111\]
*1240 inv_in\[2112\]
*1241 inv_in\[2113\]
*1242 inv_in\[2114\]
*1243 inv_in\[2115\]
*1244 inv_in\[2116\]
*1245 inv_in\[2117\]
*1246 inv_in\[2118\]
*1247 inv_in\[2119\]
*1248 inv_in\[211\]
*1249 inv_in\[2120\]
*1250 inv_in\[2121\]
*1251 inv_in\[2122\]
*1252 inv_in\[2123\]
*1253 inv_in\[2124\]
*1254 inv_in\[2125\]
*1255 inv_in\[2126\]
*1256 inv_in\[2127\]
*1257 inv_in\[2128\]
*1258 inv_in\[2129\]
*1259 inv_in\[212\]
*1260 inv_in\[2130\]
*1261 inv_in\[2131\]
*1262 inv_in\[2132\]
*1263 inv_in\[2133\]
*1264 inv_in\[2134\]
*1265 inv_in\[2135\]
*1266 inv_in\[2136\]
*1267 inv_in\[2137\]
*1268 inv_in\[2138\]
*1269 inv_in\[2139\]
*1270 inv_in\[213\]
*1271 inv_in\[2140\]
*1272 inv_in\[2141\]
*1273 inv_in\[2142\]
*1274 inv_in\[2143\]
*1275 inv_in\[2144\]
*1276 inv_in\[2145\]
*1277 inv_in\[2146\]
*1278 inv_in\[2147\]
*1279 inv_in\[2148\]
*1280 inv_in\[2149\]
*1281 inv_in\[214\]
*1282 inv_in\[2150\]
*1283 inv_in\[2151\]
*1284 inv_in\[2152\]
*1285 inv_in\[2153\]
*1286 inv_in\[2154\]
*1287 inv_in\[2155\]
*1288 inv_in\[2156\]
*1289 inv_in\[2157\]
*1290 inv_in\[2158\]
*1291 inv_in\[2159\]
*1292 inv_in\[215\]
*1293 inv_in\[2160\]
*1294 inv_in\[2161\]
*1295 inv_in\[2162\]
*1296 inv_in\[2163\]
*1297 inv_in\[2164\]
*1298 inv_in\[2165\]
*1299 inv_in\[2166\]
*1300 inv_in\[2167\]
*1301 inv_in\[2168\]
*1302 inv_in\[2169\]
*1303 inv_in\[216\]
*1304 inv_in\[2170\]
*1305 inv_in\[2171\]
*1306 inv_in\[2172\]
*1307 inv_in\[2173\]
*1308 inv_in\[2174\]
*1309 inv_in\[2175\]
*1310 inv_in\[2176\]
*1311 inv_in\[2177\]
*1312 inv_in\[2178\]
*1313 inv_in\[2179\]
*1314 inv_in\[217\]
*1315 inv_in\[2180\]
*1316 inv_in\[2181\]
*1317 inv_in\[2182\]
*1318 inv_in\[2183\]
*1319 inv_in\[2184\]
*1320 inv_in\[2185\]
*1321 inv_in\[2186\]
*1322 inv_in\[2187\]
*1323 inv_in\[2188\]
*1324 inv_in\[2189\]
*1325 inv_in\[218\]
*1326 inv_in\[2190\]
*1327 inv_in\[2191\]
*1328 inv_in\[2192\]
*1329 inv_in\[2193\]
*1330 inv_in\[2194\]
*1331 inv_in\[2195\]
*1332 inv_in\[2196\]
*1333 inv_in\[2197\]
*1334 inv_in\[2198\]
*1335 inv_in\[2199\]
*1336 inv_in\[219\]
*1337 inv_in\[21\]
*1338 inv_in\[2200\]
*1339 inv_in\[2201\]
*1340 inv_in\[2202\]
*1341 inv_in\[2203\]
*1342 inv_in\[2204\]
*1343 inv_in\[2205\]
*1344 inv_in\[2206\]
*1345 inv_in\[2207\]
*1346 inv_in\[2208\]
*1347 inv_in\[2209\]
*1348 inv_in\[220\]
*1349 inv_in\[2210\]
*1350 inv_in\[2211\]
*1351 inv_in\[2212\]
*1352 inv_in\[2213\]
*1353 inv_in\[2214\]
*1354 inv_in\[2215\]
*1355 inv_in\[2216\]
*1356 inv_in\[2217\]
*1357 inv_in\[2218\]
*1358 inv_in\[2219\]
*1359 inv_in\[221\]
*1360 inv_in\[2220\]
*1361 inv_in\[2221\]
*1362 inv_in\[2222\]
*1363 inv_in\[2223\]
*1364 inv_in\[2224\]
*1365 inv_in\[2225\]
*1366 inv_in\[2226\]
*1367 inv_in\[2227\]
*1368 inv_in\[2228\]
*1369 inv_in\[2229\]
*1370 inv_in\[222\]
*1371 inv_in\[2230\]
*1372 inv_in\[2231\]
*1373 inv_in\[2232\]
*1374 inv_in\[2233\]
*1375 inv_in\[2234\]
*1376 inv_in\[2235\]
*1377 inv_in\[2236\]
*1378 inv_in\[2237\]
*1379 inv_in\[2238\]
*1380 inv_in\[2239\]
*1381 inv_in\[223\]
*1382 inv_in\[2240\]
*1383 inv_in\[2241\]
*1384 inv_in\[2242\]
*1385 inv_in\[2243\]
*1386 inv_in\[2244\]
*1387 inv_in\[2245\]
*1388 inv_in\[2246\]
*1389 inv_in\[2247\]
*1390 inv_in\[2248\]
*1391 inv_in\[2249\]
*1392 inv_in\[224\]
*1393 inv_in\[2250\]
*1394 inv_in\[2251\]
*1395 inv_in\[2252\]
*1396 inv_in\[2253\]
*1397 inv_in\[2254\]
*1398 inv_in\[2255\]
*1399 inv_in\[2256\]
*1400 inv_in\[2257\]
*1401 inv_in\[2258\]
*1402 inv_in\[2259\]
*1403 inv_in\[225\]
*1404 inv_in\[2260\]
*1405 inv_in\[2261\]
*1406 inv_in\[2262\]
*1407 inv_in\[2263\]
*1408 inv_in\[2264\]
*1409 inv_in\[2265\]
*1410 inv_in\[2266\]
*1411 inv_in\[2267\]
*1412 inv_in\[2268\]
*1413 inv_in\[2269\]
*1414 inv_in\[226\]
*1415 inv_in\[2270\]
*1416 inv_in\[2271\]
*1417 inv_in\[2272\]
*1418 inv_in\[2273\]
*1419 inv_in\[2274\]
*1420 inv_in\[2275\]
*1421 inv_in\[2276\]
*1422 inv_in\[2277\]
*1423 inv_in\[2278\]
*1424 inv_in\[2279\]
*1425 inv_in\[227\]
*1426 inv_in\[2280\]
*1427 inv_in\[2281\]
*1428 inv_in\[2282\]
*1429 inv_in\[2283\]
*1430 inv_in\[2284\]
*1431 inv_in\[2285\]
*1432 inv_in\[2286\]
*1433 inv_in\[2287\]
*1434 inv_in\[2288\]
*1435 inv_in\[2289\]
*1436 inv_in\[228\]
*1437 inv_in\[2290\]
*1438 inv_in\[2291\]
*1439 inv_in\[2292\]
*1440 inv_in\[2293\]
*1441 inv_in\[2294\]
*1442 inv_in\[2295\]
*1443 inv_in\[2296\]
*1444 inv_in\[2297\]
*1445 inv_in\[2298\]
*1446 inv_in\[2299\]
*1447 inv_in\[229\]
*1448 inv_in\[22\]
*1449 inv_in\[2300\]
*1450 inv_in\[2301\]
*1451 inv_in\[2302\]
*1452 inv_in\[2303\]
*1453 inv_in\[2304\]
*1454 inv_in\[2305\]
*1455 inv_in\[2306\]
*1456 inv_in\[2307\]
*1457 inv_in\[2308\]
*1458 inv_in\[2309\]
*1459 inv_in\[230\]
*1460 inv_in\[2310\]
*1461 inv_in\[2311\]
*1462 inv_in\[2312\]
*1463 inv_in\[2313\]
*1464 inv_in\[2314\]
*1465 inv_in\[2315\]
*1466 inv_in\[2316\]
*1467 inv_in\[2317\]
*1468 inv_in\[2318\]
*1469 inv_in\[2319\]
*1470 inv_in\[231\]
*1471 inv_in\[2320\]
*1472 inv_in\[2321\]
*1473 inv_in\[2322\]
*1474 inv_in\[2323\]
*1475 inv_in\[2324\]