*SPEF "ieee 1481-1999"
*DESIGN "tt_um_tomkeddie_b"
*DATE "19:30:48 Thursday October 31, 2024"
*VENDOR "The OpenROAD Project"
*PROGRAM "OpenROAD"
*VERSION "v2.0-16649-g40811f37f"
*DESIGN_FLOW "NAME_SCOPE LOCAL" "PIN_CAP NONE"
*DIVIDER /
*DELIMITER :
*BUS_DELIMITER []
*T_UNIT 1 NS
*C_UNIT 1 PF
*R_UNIT 1 OHM
*L_UNIT 1 HENRY

*NAME_MAP
*1 _000_
*2 _001_
*3 _002_
*4 _003_
*5 _004_
*6 _005_
*7 _006_
*8 _007_
*9 _008_
*10 _009_
*11 _010_
*12 _011_
*13 _012_
*14 _013_
*15 _014_
*16 _015_
*17 _016_
*18 _017_
*19 _018_
*20 _019_
*21 _020_
*22 _021_
*23 _022_
*24 _023_
*25 _024_
*26 _025_
*27 _026_
*28 _027_
*29 _028_
*30 _029_
*31 _030_
*32 _031_
*33 _032_
*34 _033_
*35 _034_
*36 _035_
*37 _036_
*38 _037_
*39 _038_
*40 _039_
*41 _040_
*42 _041_
*43 _042_
*44 _043_
*45 _044_
*46 _045_
*47 _046_
*48 _047_
*49 _048_
*50 _049_
*51 _050_
*52 _051_
*53 _052_
*54 _053_
*55 _054_
*56 _055_
*57 _056_
*58 _057_
*59 _058_
*60 _059_
*61 _060_
*62 _061_
*63 _062_
*64 _063_
*65 _064_
*66 _065_
*67 _066_
*68 _067_
*69 _068_
*70 _069_
*71 _070_
*72 _071_
*73 _072_
*74 _073_
*75 _074_
*76 _075_
*77 _076_
*78 _077_
*79 _078_
*80 _079_
*81 _080_
*82 _081_
*83 _082_
*84 _083_
*85 _084_
*86 _085_
*87 _086_
*88 _087_
*89 _088_
*90 _089_
*91 _090_
*92 _091_
*93 _092_
*94 _093_
*95 _094_
*96 _095_
*97 _096_
*98 _097_
*99 _098_
*100 _099_
*101 _100_
*102 _101_
*103 _102_
*104 _103_
*105 _104_
*106 _105_
*107 _106_
*108 _107_
*109 _108_
*110 _109_
*111 _110_
*112 _111_
*113 _112_
*114 _113_
*115 _114_
*116 _115_
*117 _116_
*118 _117_
*119 _118_
*120 _119_
*121 _120_
*122 _121_
*123 _122_
*124 _123_
*125 _124_
*126 _125_
*127 _126_
*128 _127_
*129 _128_
*130 _129_
*131 _130_
*132 _131_
*133 _132_
*134 _133_
*135 _134_
*136 _135_
*137 _136_
*138 _137_
*139 _138_
*140 _139_
*141 _140_
*142 _141_
*143 _142_
*144 _143_
*145 _144_
*146 _145_
*147 _146_
*148 _147_
*149 _148_
*150 _149_
*151 _150_
*152 _151_
*153 _152_
*154 _153_
*155 _154_
*156 _155_
*157 _156_
*158 _157_
*159 _158_
*160 _159_
*161 _160_
*162 _161_
*163 _162_
*164 _163_
*165 _164_
*166 _165_
*167 _166_
*168 _167_
*169 _168_
*170 _169_
*171 _170_
*172 _171_
*173 _172_
*174 _173_
*175 _174_
*176 _175_
*177 _176_
*178 _177_
*179 _178_
*180 _179_
*181 _180_
*182 _181_
*183 _182_
*184 _183_
*185 _184_
*186 _185_
*187 _186_
*188 _187_
*189 _188_
*190 _189_
*191 _190_
*192 _191_
*193 _192_
*194 _193_
*195 _194_
*196 _195_
*197 _196_
*198 _197_
*199 _198_
*200 _199_
*201 _200_
*202 _201_
*203 _202_
*204 _203_
*205 _204_
*206 _205_
*207 _206_
*208 _207_
*209 _208_
*210 _209_
*211 _210_
*212 _211_
*213 _212_
*214 _213_
*215 _214_
*216 _215_
*217 _216_
*218 _217_
*219 _218_
*220 _219_
*221 _220_
*222 _221_
*223 _222_
*224 _223_
*225 _224_
*226 _225_
*227 _226_
*228 _227_
*229 _228_
*230 _229_
*231 _230_
*232 _231_
*233 _232_
*234 _233_
*235 _234_
*236 _235_
*237 _236_
*238 _237_
*239 _238_
*240 _239_
*241 _240_
*242 _241_
*243 _242_
*244 _243_
*245 _244_
*246 _245_
*247 _246_
*248 _247_
*249 _248_
*250 _249_
*251 _250_
*252 _251_
*253 _252_
*254 _253_
*255 _254_
*256 _255_
*257 _256_
*258 _257_
*259 _258_
*260 _259_
*261 _260_
*262 _261_
*263 _262_
*264 _263_
*265 _264_
*266 _265_
*267 _266_
*268 _267_
*269 _268_
*270 _269_
*271 _270_
*272 _271_
*273 _272_
*274 _273_
*275 _274_
*276 _275_
*277 _276_
*278 _277_
*279 _278_
*280 _279_
*281 _280_
*282 _281_
*283 _282_
*284 _283_
*285 _284_
*286 _285_
*287 _286_
*288 _287_
*289 _288_
*290 _289_
*291 _290_
*292 _291_
*293 _292_
*294 _293_
*295 _294_
*296 _295_
*297 _296_
*298 _297_
*299 _298_
*300 _299_
*301 _300_
*302 _301_
*303 _302_
*304 _303_
*305 _304_
*306 _305_
*307 _306_
*308 _307_
*309 _308_
*310 _309_
*311 _310_
*312 _311_
*313 _312_
*314 _313_
*315 _314_
*316 _315_
*317 _316_
*318 _317_
*319 _318_
*320 _319_
*321 _320_
*322 _321_
*323 _322_
*324 _323_
*325 _324_
*326 _325_
*327 _326_
*328 _327_
*329 _328_
*330 _329_
*331 _330_
*332 _331_
*333 _332_
*334 _333_
*335 _334_
*336 _335_
*337 _336_
*339 net31
*340 clk
*341 ena
*342 reset
*343 rst_n
*344 tx_pin0
*345 tx_pin1
*346 tx_pin2
*347 uart_tx\.bit_counter\[0\]
*348 uart_tx\.bit_counter\[1\]
*349 uart_tx\.bit_counter\[2\]
*350 uart_tx\.bit_counter\[3\]
*351 uart_tx\.text_index\[0\]
*352 uart_tx\.text_index\[1\]
*353 uart_tx\.text_index\[2\]
*354 uart_tx\.text_index\[3\]
*355 uart_tx\.text_index\[4\]
*356 ui_in[0]
*357 ui_in[1]
*358 ui_in[2]
*359 ui_in[3]
*360 ui_in[4]
*361 ui_in[5]
*362 ui_in[6]
*363 ui_in[7]
*364 uio_in[0]
*365 uio_in[1]
*366 uio_in[2]
*367 uio_in[3]
*368 uio_in[4]
*369 uio_in[5]
*370 uio_in[6]
*371 uio_in[7]
*372 uio_oe[0]
*373 uio_oe[1]
*374 uio_oe[2]
*375 uio_oe[3]
*376 uio_oe[4]
*377 uio_oe[5]
*378 uio_oe[6]
*379 uio_oe[7]
*380 uio_out[0]
*381 uio_out[1]
*382 uio_out[2]
*383 uio_out[3]
*384 uio_out[4]
*385 uio_out[5]
*386 uio_out[6]
*387 uio_out[7]
*388 uo_out[0]
*389 uo_out[1]
*390 uo_out[2]
*391 uo_out[3]
*392 uo_out[4]
*393 uo_out[5]
*394 uo_out[6]
*395 uo_out[7]
*398 net1
*399 net2
*400 net3
*401 net4
*402 net5
*403 net6
*404 net7
*405 net8
*406 net9
*407 net10
*408 net11
*409 net12
*410 net13
*411 net14
*412 net15
*413 net16
*414 net17
*415 net18
*416 net19
*417 net20
*418 net21
*419 net22
*420 net23
*421 net24
*422 net25
*423 net26
*424 net27
*425 net28
*426 net29
*427 net30
*428 net32
*429 net33
*430 net34
*431 net35
*432 net36
*433 net37
*434 net38
*435 net39
*436 net40
*437 net41
*438 net42
*439 _339_
*440 _340_
*441 _341_
*442 _342_
*443 _343_
*444 _344_
*445 _345_
*446 _346_
*447 _347_
*448 _348_
*449 _349_
*450 _350_
*451 _351_
*452 _352_
*453 _353_
*454 _354_
*455 _355_
*456 _356_
*457 _357_
*458 _358_
*459 _359_
*460 _360_
*461 _361_
*462 _362_
*463 _363_
*464 _364_
*465 _365_
*466 _366_
*467 _367_
*468 _368_
*469 _369_
*470 _370_
*471 _371_
*472 _372_
*473 _373_
*474 _374_
*475 _375_
*476 _376_
*477 _377_
*478 _378_
*479 _379_
*480 _380_
*481 _381_
*482 _382_
*483 _383_
*484 _384_
*485 _385_
*486 _386_
*487 _387_
*488 _388_
*489 _389_
*490 _390_
*491 _391_
*492 _392_
*493 _393_
*494 _394_
*495 _395_
*496 _396_
*497 _397_
*498 _398_
*499 _399_
*500 _400_
*501 _401_
*502 _402_
*503 _403_
*504 _404_
*505 _405_
*506 _406_
*507 _407_
*508 _408_
*509 _409_
*510 _410_
*511 _411_
*512 _412_
*513 _413_
*514 _414_
*515 _415_
*516 _416_
*517 _417_
*518 _418_
*519 _419_
*520 _420_
*521 _421_
*522 _422_
*523 _423_
*524 _424_
*525 _425_
*526 _426_
*527 _427_
*528 _428_
*529 _429_
*530 _430_
*531 _431_
*532 _432_
*533 _433_
*534 _434_
*535 _435_
*536 _436_
*537 _437_
*538 _438_
*539 _439_
*540 _440_
*541 _441_
*542 _442_
*543 _443_
*544 _444_
*545 _445_
*546 _446_
*547 _447_
*548 _448_
*549 _449_
*550 _450_
*551 _451_
*552 _452_
*553 _453_
*554 _454_
*555 _455_
*556 _456_
*557 _457_
*558 _458_
*559 _459_
*560 _460_
*561 _461_
*562 _462_
*563 _463_
*564 _464_
*565 _465_
*566 _466_
*567 _467_
*568 _468_
*569 _469_
*570 _470_
*571 _471_
*572 _472_
*573 _473_
*574 _474_
*575 _475_
*576 _476_
*577 _477_
*578 _478_
*579 _479_
*580 _480_
*581 _481_
*582 _482_
*583 _483_
*584 _484_
*585 _485_
*586 _486_
*587 _487_
*588 _488_
*589 _489_
*590 _490_
*591 _491_
*592 _492_
*593 _493_
*594 _494_
*595 _495_
*596 _496_
*597 _497_
*598 _498_
*599 _499_
*600 _500_
*601 _501_
*602 _502_
*603 _503_
*604 _504_
*605 _505_
*606 _506_
*607 _507_
*608 _508_
*609 _509_
*610 _510_
*611 _511_
*612 _512_
*613 _513_
*614 _514_
*615 _515_
*616 _516_
*617 _517_
*618 _518_
*619 _519_
*620 _520_
*621 _521_
*622 _522_
*623 _523_
*624 _524_
*625 _525_
*626 _526_
*627 _527_
*628 _528_
*629 _529_
*630 _530_
*631 _531_
*632 _532_
*633 _533_
*634 _534_
*635 _535_
*636 _536_
*637 _537_
*638 _538_
*639 _539_
*640 _540_
*641 _541_
*642 _542_
*643 _543_
*644 _544_
*645 _545_
*646 _546_
*647 _547_
*648 _548_
*649 _549_
*650 _550_
*651 _551_
*652 _552_
*653 _553_
*654 _554_
*655 _555_
*656 _556_
*657 _557_
*658 _558_
*659 _559_
*660 _560_
*661 _561_
*662 _562_
*663 _563_
*664 _564_
*665 _565_
*666 _566_
*667 _567_
*668 _568_
*669 _569_
*670 _570_
*671 _571_
*672 _572_
*673 _573_
*674 _574_
*675 _575_
*676 _576_
*677 _577_
*678 _578_
*679 _579_
*680 _580_
*681 _581_
*682 _582_
*683 _583_
*684 _584_
*685 _585_
*686 _586_
*687 _587_
*688 _588_
*689 _589_
*690 _590_
*691 _591_
*692 _592_
*693 _593_
*694 _594_
*695 _595_
*696 _596_
*697 _597_
*698 _598_
*699 _599_
*700 _600_
*701 _601_
*702 _602_
*703 _603_
*704 _604_
*705 _605_
*706 _606_
*707 _607_
*708 _608_
*709 _609_
*710 _610_
*711 _611_
*712 _612_
*713 _613_
*714 _614_
*715 _615_
*716 _616_
*717 _617_
*718 _618_
*719 _619_
*720 _620_
*721 _621_
*722 _622_
*723 _623_
*724 _624_
*725 _625_
*726 _626_
*727 _627_
*728 _628_
*729 _629_
*730 _630_
*731 _631_
*732 _632_
*733 _633_
*734 _634_
*735 _635_
*736 _636_
*737 _637_
*738 _638_
*739 _639_
*740 _640_
*741 _641_
*742 _642_
*743 _643_
*744 _644_
*745 _645_
*746 _646_
*747 _647_
*748 _648_
*749 _649_
*750 _650_
*751 _651_
*752 _652_
*753 _653_
*754 _654_
*755 _655_
*756 _656_
*757 _657_
*758 _658_
*759 _659_
*760 _660_
*761 _661_
*762 _662_
*763 _663_
*764 _664_
*765 FILLER_0_0
*766 uart_tx\.bit_counter\[0\]\$_SDFF_PP0__31
*767 _667_
*768 _668_
*769 _669_
*770 _670_
*771 _671_
*772 _672_
*773 _673_
*774 _674_
*775 _675_
*776 _676_
*777 _677_
*778 _678_
*779 _679_
*780 _680_
*781 _681_
*782 _682_
*783 _683_
*784 _684_
*785 _685_
*786 _686_
*787 _687_
*788 _688_
*789 _689_
*790 _690_
*791 uart_tx\.bit_counter\[0\]\$_SDFF_PP0_
*792 uart_tx\.bit_counter\[1\]\$_SDFF_PP0_
*793 uart_tx\.bit_counter\[2\]\$_SDFF_PP0_
*794 uart_tx\.bit_counter\[3\]\$_SDFF_PP0_
*795 uart_tx\.text_index\[0\]\$_SDFFE_PN0P_
*796 uart_tx\.text_index\[1\]\$_SDFFE_PN0P_
*797 uart_tx\.text_index\[2\]\$_SDFFE_PN0P_
*798 uart_tx\.text_index\[3\]\$_SDFFE_PN0P_
*799 uart_tx\.text_index\[4\]\$_SDFFE_PN0P_
*800 uart_tx\.tx_pin0_int\$_SDFF_PN1_
*801 uart_tx\.tx_pin1_int\$_SDFF_PN1_
*802 uart_tx\.tx_pin2_int\$_SDFF_PN1_
*803 input1
*804 output2
*805 output3
*806 output4
*807 output5
*808 output6
*809 output7
*810 fanout8
*811 fanout9
*812 fanout10
*813 fanout11
*814 fanout12
*815 _667__13
*816 _668__14
*817 _669__15
*818 _670__16
*819 _671__17
*820 _672__18
*821 _673__19
*822 _674__20
*823 _681__21
*824 _682__22
*825 _683__23
*826 _684__24
*827 _685__25
*828 _686__26
*829 _687__27
*830 _688__28
*831 _689__29
*832 _690__30
*833 uart_tx\.bit_counter\[1\]\$_SDFF_PP0__32
*834 uart_tx\.bit_counter\[2\]\$_SDFF_PP0__33
*835 uart_tx\.bit_counter\[3\]\$_SDFF_PP0__34
*836 uart_tx\.text_index\[0\]\$_SDFFE_PN0P__35
*837 uart_tx\.text_index\[1\]\$_SDFFE_PN0P__36
*838 uart_tx\.text_index\[2\]\$_SDFFE_PN0P__37
*839 uart_tx\.text_index\[3\]\$_SDFFE_PN0P__38
*840 uart_tx\.text_index\[4\]\$_SDFFE_PN0P__39
*841 uart_tx\.tx_pin0_int\$_SDFF_PN1__40
*842 uart_tx\.tx_pin1_int\$_SDFF_PN1__41
*843 uart_tx\.tx_pin2_int\$_SDFF_PN1__42
*844 FILLER_0_7
*845 FILLER_0_14
*846 FILLER_0_21
*847 FILLER_0_28
*848 FILLER_0_35
*849 FILLER_0_42
*850 FILLER_0_49
*851 FILLER_0_56
*852 FILLER_0_63
*853 FILLER_0_70
*854 FILLER_0_77
*855 FILLER_0_84
*856 FILLER_0_91
*857 FILLER_0_98
*858 FILLER_0_105
*859 FILLER_0_112
*860 FILLER_0_119
*861 FILLER_0_126
*862 FILLER_0_133
*863 FILLER_0_140
*864 FILLER_0_147
*865 FILLER_0_154
*866 FILLER_0_161
*867 FILLER_0_168
*868 FILLER_0_175
*869 FILLER_0_182
*870 FILLER_0_189
*871 FILLER_0_196
*872 FILLER_0_203
*873 FILLER_0_210
*874 FILLER_0_217
*875 FILLER_0_224
*876 FILLER_0_231
*877 FILLER_0_238
*878 FILLER_0_245
*879 FILLER_0_252
*880 FILLER_0_259
*881 FILLER_0_266
*882 FILLER_0_273
*883 FILLER_0_280
*884 FILLER_0_287
*885 FILLER_0_294
*886 FILLER_0_301
*887 FILLER_0_308
*888 FILLER_0_315
*889 FILLER_0_322
*890 FILLER_0_329
*891 FILLER_0_336
*892 FILLER_0_343
*893 FILLER_0_350
*894 FILLER_0_357
*895 FILLER_0_364
*896 FILLER_0_371
*897 FILLER_0_378
*898 FILLER_0_385
*899 FILLER_0_392
*900 FILLER_0_399
*901 FILLER_0_406
*902 FILLER_0_413
*903 FILLER_0_420
*904 FILLER_0_427
*905 FILLER_0_429
*906 FILLER_1_0
*907 FILLER_1_7
*908 FILLER_1_14
*909 FILLER_1_21
*910 FILLER_1_28
*911 FILLER_1_35
*912 FILLER_1_42
*913 FILLER_1_49
*914 FILLER_1_56
*915 FILLER_1_63
*916 FILLER_1_70
*917 FILLER_1_77
*918 FILLER_1_84
*919 FILLER_1_91
*920 FILLER_1_98
*921 FILLER_1_105
*922 FILLER_1_112
*923 FILLER_1_119
*924 FILLER_1_126
*925 FILLER_1_133
*926 FILLER_1_140
*927 FILLER_1_147
*928 FILLER_1_154
*929 FILLER_1_161
*930 FILLER_1_168
*931 FILLER_1_175
*932 FILLER_1_182
*933 FILLER_1_189
*934 FILLER_1_196
*935 FILLER_1_203
*936 FILLER_1_210
*937 FILLER_1_217
*938 FILLER_1_224
*939 FILLER_1_231
*940 FILLER_1_238
*941 FILLER_1_245
*942 FILLER_1_252
*943 FILLER_1_259
*944 FILLER_1_266
*945 FILLER_1_273
*946 FILLER_1_280
*947 FILLER_1_287
*948 FILLER_1_294
*949 FILLER_1_301
*950 FILLER_1_308
*951 FILLER_1_315
*952 FILLER_1_322
*953 FILLER_1_329
*954 FILLER_1_336
*955 FILLER_1_343
*956 FILLER_1_350
*957 FILLER_1_357
*958 FILLER_1_364
*959 FILLER_1_371
*960 FILLER_1_378
*961 FILLER_1_385
*962 FILLER_1_392
*963 FILLER_1_399
*964 FILLER_1_406
*965 FILLER_1_413
*966 FILLER_1_420
*967 FILLER_1_427
*968 FILLER_1_429
*969 FILLER_2_0
*970 FILLER_2_7
*971 FILLER_2_14
*972 FILLER_2_21
*973 FILLER_2_28
*974 FILLER_2_35
*975 FILLER_2_42
*976 FILLER_2_49
*977 FILLER_2_56
*978 FILLER_2_63
*979 FILLER_2_70
*980 FILLER_2_77
*981 FILLER_2_84
*982 FILLER_2_91
*983 FILLER_2_98
*984 FILLER_2_105
*985 FILLER_2_112
*986 FILLER_2_119
*987 FILLER_2_126
*988 FILLER_2_133
*989 FILLER_2_140
*990 FILLER_2_147
*991 FILLER_2_154
*992 FILLER_2_161
*993 FILLER_2_168
*994 FILLER_2_175
*995 FILLER_2_182
*996 FILLER_2_189
*997 FILLER_2_196
*998 FILLER_2_203
*999 FILLER_2_210
*1000 FILLER_2_217
*1001 FILLER_2_224
*1002 FILLER_2_231
*1003 FILLER_2_238
*1004 FILLER_2_245
*1005 FILLER_2_252
*1006 FILLER_2_259
*1007 FILLER_2_266
*1008 FILLER_2_273
*1009 FILLER_2_280
*1010 FILLER_2_287
*1011 FILLER_2_294
*1012 FILLER_2_301
*1013 FILLER_2_308
*1014 FILLER_2_315
*1015 FILLER_2_322
*1016 FILLER_2_329
*1017 FILLER_2_336
*1018 FILLER_2_343
*1019 FILLER_2_350
*1020 FILLER_2_357
*1021 FILLER_2_364
*1022 FILLER_2_371
*1023 FILLER_2_378
*1024 FILLER_2_385
*1025 FILLER_2_392
*1026 FILLER_2_399
*1027 FILLER_2_406
*1028 FILLER_2_413
*1029 FILLER_2_420
*1030 FILLER_2_427
*1031 FILLER_2_429
*1032 FILLER_3_0
*1033 FILLER_3_7
*1034 FILLER_3_14
*1035 FILLER_3_21
*1036 FILLER_3_28
*1037 FILLER_3_35
*1038 FILLER_3_42
*1039 FILLER_3_49
*1040 FILLER_3_56
*1041 FILLER_3_63
*1042 FILLER_3_70
*1043 FILLER_3_77
*1044 FILLER_3_84
*1045 FILLER_3_91
*1046 FILLER_3_98
*1047 FILLER_3_105
*1048 FILLER_3_112
*1049 FILLER_3_119
*1050 FILLER_3_126
*1051 FILLER_3_133
*1052 FILLER_3_140
*1053 FILLER_3_147
*1054 FILLER_3_154
*1055 FILLER_3_161
*1056 FILLER_3_168
*1057 FILLER_3_175
*1058 FILLER_3_182
*1059 FILLER_3_189
*1060 FILLER_3_196
*1061 FILLER_3_203
*1062 FILLER_3_210
*1063 FILLER_3_217
*1064 FILLER_3_224
*1065 FILLER_3_231
*1066 FILLER_3_238
*1067 FILLER_3_245
*1068 FILLER_3_252
*1069 FILLER_3_259
*1070 FILLER_3_266
*1071 FILLER_3_273
*1072 FILLER_3_280
*1073 FILLER_3_287
*1074 FILLER_3_294
*1075 FILLER_3_301
*1076 FILLER_3_308
*1077 FILLER_3_315
*1078 FILLER_3_322
*1079 FILLER_3_329
*1080 FILLER_3_336
*1081 FILLER_3_343
*1082 FILLER_3_350
*1083 FILLER_3_357
*1084 FILLER_3_364
*1085 FILLER_3_371
*1086 FILLER_3_378
*1087 FILLER_3_385
*1088 FILLER_3_392
*1089 FILLER_3_399
*1090 FILLER_3_406
*1091 FILLER_3_413
*1092 FILLER_3_420
*1093 FILLER_3_427
*1094 FILLER_3_429
*1095 FILLER_4_0
*1096 FILLER_4_7
*1097 FILLER_4_14
*1098 FILLER_4_21
*1099 FILLER_4_28
*1100 FILLER_4_35
*1101 FILLER_4_42
*1102 FILLER_4_49
*1103 FILLER_4_56
*1104 FILLER_4_63
*1105 FILLER_4_70
*1106 FILLER_4_77
*1107 FILLER_4_84
*1108 FILLER_4_91
*1109 FILLER_4_98
*1110 FILLER_4_105
*1111 FILLER_4_112
*1112 FILLER_4_119
*1113 FILLER_4_126
*1114 FILLER_4_133
*1115 FILLER_4_140
*1116 FILLER_4_147
*1117 FILLER_4_154
*1118 FILLER_4_161
*1119 FILLER_4_168
*1120 FILLER_4_175
*1121 FILLER_4_182
*1122 FILLER_4_189
*1123 FILLER_4_196
*1124 FILLER_4_203
*1125 FILLER_4_210
*1126 FILLER_4_217
*1127 FILLER_4_224
*1128 FILLER_4_231
*1129 FILLER_4_238
*1130 FILLER_4_245
*1131 FILLER_4_252
*1132 FILLER_4_259
*1133 FILLER_4_266
*1134 FILLER_4_273
*1135 FILLER_4_280
*1136 FILLER_4_287
*1137 FILLER_4_294
*1138 FILLER_4_301
*1139 FILLER_4_308
*1140 FILLER_4_315
*1141 FILLER_4_322
*1142 FILLER_4_329
*1143 FILLER_4_336
*1144 FILLER_4_343
*1145 FILLER_4_350
*1146 FILLER_4_357
*1147 FILLER_4_364
*1148 FILLER_4_371
*1149 FILLER_4_378
*1150 FILLER_4_385
*1151 FILLER_4_392
*1152 FILLER_4_399
*1153 FILLER_4_406
*1154 FILLER_4_413
*1155 FILLER_4_420
*1156 FILLER_4_427
*1157 FILLER_4_429
*1158 FILLER_5_0
*1159 FILLER_5_7
*1160 FILLER_5_14
*1161 FILLER_5_21
*1162 FILLER_5_28
*1163 FILLER_5_35
*1164 FILLER_5_42
*1165 FILLER_5_49
*1166 FILLER_5_56
*1167 FILLER_5_63
*1168 FILLER_5_70
*1169 FILLER_5_77
*1170 FILLER_5_84
*1171 FILLER_5_91
*1172 FILLER_5_98
*1173 FILLER_5_105
*1174 FILLER_5_112
*1175 FILLER_5_119
*1176 FILLER_5_126
*1177 FILLER_5_133
*1178 FILLER_5_140
*1179 FILLER_5_147
*1180 FILLER_5_154
*1181 FILLER_5_161
*1182 FILLER_5_168
*1183 FILLER_5_175
*1184 FILLER_5_182
*1185 FILLER_5_189
*1186 FILLER_5_196
*1187 FILLER_5_203
*1188 FILLER_5_210
*1189 FILLER_5_217
*1190 FILLER_5_224
*1191 FILLER_5_231
*1192 FILLER_5_238
*1193 FILLER_5_245
*1194 FILLER_5_252
*1195 FILLER_5_259
*1196 FILLER_5_266
*1197 FILLER_5_273
*1198 FILLER_5_280
*1199 FILLER_5_287
*1200 FILLER_5_294
*1201 FILLER_5_301
*1202 FILLER_5_308
*1203 FILLER_5_315
*1204 FILLER_5_322
*1205 FILLER_5_329
*1206 FILLER_5_336
*1207 FILLER_5_343
*1208 FILLER_5_350
*1209 FILLER_5_357
*1210 FILLER_5_364
*1211 FILLER_5_371
*1212 FILLER_5_378
*1213 FILLER_5_385
*1214 FILLER_5_392
*1215 FILLER_5_399
*1216 FILLER_5_406
*1217 FILLER_5_413
*1218 FILLER_5_420
*1219 FILLER_5_427
*1220 FILLER_5_429
*1221 FILLER_6_0
*1222 FILLER_6_7
*1223 FILLER_6_14
*1224 FILLER_6_21
*1225 FILLER_6_28
*1226 FILLER_6_35
*1227 FILLER_6_42
*1228 FILLER_6_49
*1229 FILLER_6_56
*1230 FILLER_6_63
*1231 FILLER_6_70
*1232 FILLER_6_77
*1233 FILLER_6_84
*1234 FILLER_6_91
*1235 FILLER_6_98
*1236 FILLER_6_105
*1237 FILLER_6_112
*1238 FILLER_6_119
*1239 FILLER_6_126
*1240 FILLER_6_133
*1241 FILLER_6_140
*1242 FILLER_6_147
*1243 FILLER_6_154
*1244 FILLER_6_161
*1245 FILLER_6_168
*1246 FILLER_6_175
*1247 FILLER_6_182
*1248 FILLER_6_189
*1249 FILLER_6_196
*1250 FILLER_6_203
*1251 FILLER_6_210
*1252 FILLER_6_217
*1253 FILLER_6_224
*1254 FILLER_6_231
*1255 FILLER_6_238
*1256 FILLER_6_245
*1257 FILLER_6_252
*1258 FILLER_6_259
*1259 FILLER_6_266
*1260 FILLER_6_273
*1261 FILLER_6_280
*1262 FILLER_6_287
*1263 FILLER_6_294
*1264 FILLER_6_301
*1265 FILLER_6_308
*1266 FILLER_6_315
*1267 FILLER_6_322
*1268 FILLER_6_329
*1269 FILLER_6_336
*1270 FILLER_6_343
*1271 FILLER_6_350
*1272 FILLER_6_357
*1273 FILLER_6_364
*1274 FILLER_6_371
*1275 FILLER_6_378
*1276 FILLER_6_385
*1277 FILLER_6_392
*1278 FILLER_6_399
*1279 FILLER_6_406
*1280 FILLER_6_413
*1281 FILLER_6_420
*1282 FILLER_6_427
*1283 FILLER_6_429
*1284 FILLER_7_0
*1285 FILLER_7_7
*1286 FILLER_7_14
*1287 FILLER_7_21
*1288 FILLER_7_28
*1289 FILLER_7_35
*1290 FILLER_7_42
*1291 FILLER_7_49
*1292 FILLER_7_56
*1293 FILLER_7_63
*1294 FILLER_7_70
*1295 FILLER_7_77
*1296 FILLER_7_84
*1297 FILLER_7_91
*1298 FILLER_7_98
*1299 FILLER_7_105
*1300 FILLER_7_112
*1301 FILLER_7_119
*1302 FILLER_7_126
*1303 FILLER_7_133
*1304 FILLER_7_140
*1305 FILLER_7_147
*1306 FILLER_7_154
*1307 FILLER_7_161
*1308 FILLER_7_168
*1309 FILLER_7_175
*1310 FILLER_7_182
*1311 FILLER_7_189
*1312 FILLER_7_196
*1313 FILLER_7_203
*1314 FILLER_7_210
*1315 FILLER_7_217
*1316 FILLER_7_224
*1317 FILLER_7_231
*1318 FILLER_7_238
*1319 FILLER_7_245
*1320 FILLER_7_252
*1321 FILLER_7_259
*1322 FILLER_7_266
*1323 FILLER_7_273
*1324 FILLER_7_280
*1325 FILLER_7_287
*1326 FILLER_7_294
*1327 FILLER_7_301
*1328 FILLER_7_308
*1329 FILLER_7_315
*1330 FILLER_7_322
*1331 FILLER_7_329
*1332 FILLER_7_336
*1333 FILLER_7_343
*1334 FILLER_7_350
*1335 FILLER_7_357
*1336 FILLER_7_364
*1337 FILLER_7_371
*1338 FILLER_7_378
*1339 FILLER_7_385
*1340 FILLER_7_392
*1341 FILLER_7_399
*1342 FILLER_7_406
*1343 FILLER_7_413
*1344 FILLER_7_420
*1345 FILLER_7_427
*1346 FILLER_7_429
*1347 FILLER_8_0
*1348 FILLER_8_7
*1349 FILLER_8_14
*1350 FILLER_8_21
*1351 FILLER_8_28
*1352 FILLER_8_35
*1353 FILLER_8_42
*1354 FILLER_8_49
*1355 FILLER_8_56
*1356 FILLER_8_63
*1357 FILLER_8_70
*1358 FILLER_8_77
*1359 FILLER_8_84
*1360 FILLER_8_91
*1361 FILLER_8_98
*1362 FILLER_8_105
*1363 FILLER_8_112
*1364 FILLER_8_119
*1365 FILLER_8_126
*1366 FILLER_8_133
*1367 FILLER_8_140
*1368 FILLER_8_147
*1369 FILLER_8_154
*1370 FILLER_8_161
*1371 FILLER_8_168
*1372 FILLER_8_175
*1373 FILLER_8_182
*1374 FILLER_8_189
*1375 FILLER_8_196
*1376 FILLER_8_203
*1377 FILLER_8_210
*1378 FILLER_8_217
*1379 FILLER_8_224
*1380 FILLER_8_231
*1381 FILLER_8_238
*1382 FILLER_8_245
*1383 FILLER_8_252
*1384 FILLER_8_259
*1385 FILLER_8_266
*1386 FILLER_8_273
*1387 FILLER_8_280
*1388 FILLER_8_287
*1389 FILLER_8_294
*1390 FILLER_8_301
*1391 FILLER_8_308
*1392 FILLER_8_315
*1393 FILLER_8_322
*1394 FILLER_8_329
*1395 FILLER_8_336
*1396 FILLER_8_343
*1397 FILLER_8_350
*1398 FILLER_8_357
*1399 FILLER_8_364
*1400 FILLER_8_371
*1401 FILLER_8_378
*1402 FILLER_8_385
*1403 FILLER_8_392
*1404 FILLER_8_399
*1405 FILLER_8_406
*1406 FILLER_8_413
*1407 FILLER_8_420
*1408 FILLER_8_427
*1409 FILLER_8_429
*1410 FILLER_9_0
*1411 FILLER_9_7
*1412 FILLER_9_14
*1413 FILLER_9_21
*1414 FILLER_9_28
*1415 FILLER_9_35
*1416 FILLER_9_42
*1417 FILLER_9_49
*1418 FILLER_9_56
*1419 FILLER_9_63
*1420 FILLER_9_70
*1421 FILLER_9_77
*1422 FILLER_9_84
*1423 FILLER_9_91
*1424 FILLER_9_98
*1425 FILLER_9_105
*1426 FILLER_9_112
*1427 FILLER_9_119
*1428 FILLER_9_126
*1429 FILLER_9_133
*1430 FILLER_9_140
*1431 FILLER_9_147
*1432 FILLER_9_154
*1433 FILLER_9_161
*1434 FILLER_9_168
*1435 FILLER_9_175
*1436 FILLER_9_182
*1437 FILLER_9_189
*1438 FILLER_9_196
*1439 FILLER_9_203
*1440 FILLER_9_210
*1441 FILLER_9_217
*1442 FILLER_9_224
*1443 FILLER_9_231
*1444 FILLER_9_238
*1445 FILLER_9_245
*1446 FILLER_9_252
*1447 FILLER_9_259
*1448 FILLER_9_266
*1449 FILLER_9_273
*1450 FILLER_9_280
*1451 FILLER_9_287
*1452 FILLER_9_294
*1453 FILLER_9_301
*1454 FILLER_9_308
*1455 FILLER_9_315
*1456 FILLER_9_322
*1457 FILLER_9_329
*1458 FILLER_9_336
*1459 FILLER_9_343
*1460 FILLER_9_350
*1461 FILLER_9_357
*1462 FILLER_9_364
*1463 FILLER_9_371
*1464 FILLER_9_378
*1465 FILLER_9_385
*1466 FILLER_9_392
*1467 FILLER_9_399
*1468 FILLER_9_406
*1469 FILLER_9_413
*1470 FILLER_9_420
*1471 FILLER_9_427
*1472 FILLER_9_429
*1473 FILLER_10_0
*1474 FILLER_10_7
*1475 FILLER_10_14
*1476 FILLER_10_21
*1477 FILLER_10_28
*1478 FILLER_10_35
*1479 FILLER_10_42
*1480 FILLER_10_49
*1481 FILLER_10_56
*1482 FILLER_10_63
*1483 FILLER_10_70
*1484 FILLER_10_77
*1485 FILLER_10_84
*1486 FILLER_10_91
*1487 FILLER_10_98
*1488 FILLER_10_105
*1489 FILLER_10_112
*1490 FILLER_10_119
*1491 FILLER_10_126
*1492 FILLER_10_133
*1493 FILLER_10_140
*1494 FILLER_10_147
*1495 FILLER_10_154
*1496 FILLER_10_161
*1497 FILLER_10_168
*1498 FILLER_10_175
*1499 FILLER_10_182
*1500 FILLER_10_189
*1501 FILLER_10_196
*1502 FILLER_10_203
*1503 FILLER_10_210
*1504 FILLER_10_217
*1505 FILLER_10_224
*1506 FILLER_10_231
*1507 FILLER_10_238
*1508 FILLER_10_245
*1509 FILLER_10_252
*1510 FILLER_10_259
*1511 FILLER_10_266
*1512 FILLER_10_273
*1513 FILLER_10_280
*1514 FILLER_10_287
*1515 FILLER_10_294
*1516 FILLER_10_301
*1517 FILLER_10_308
*1518 FILLER_10_315
*1519 FILLER_10_322
*1520 FILLER_10_329
*1521 FILLER_10_336
*1522 FILLER_10_343
*1523 FILLER_10_350
*1524 FILLER_10_357
*1525 FILLER_10_364
*1526 FILLER_10_371
*1527 FILLER_10_378
*1528 FILLER_10_385
*1529 FILLER_10_392
*1530 FILLER_10_399
*1531 FILLER_10_406
*1532 FILLER_10_413
*1533 FILLER_10_420
*1534 FILLER_10_427
*1535 FILLER_10_429
*1536 FILLER_11_0
*1537 FILLER_11_7
*1538 FILLER_11_14
*1539 FILLER_11_21
*1540 FILLER_11_28
*1541 FILLER_11_35
*1542 FILLER_11_42
*1543 FILLER_11_49
*1544 FILLER_11_56
*1545 FILLER_11_63
*1546 FILLER_11_70
*1547 FILLER_11_77
*1548 FILLER_11_84
*1549 FILLER_11_91
*1550 FILLER_11_98
*1551 FILLER_11_105
*1552 FILLER_11_112
*1553 FILLER_11_119
*1554 FILLER_11_126
*1555 FILLER_11_133
*1556 FILLER_11_140
*1557 FILLER_11_147
*1558 FILLER_11_154
*1559 FILLER_11_161
*1560 FILLER_11_168
*1561 FILLER_11_175
*1562 FILLER_11_182
*1563 FILLER_11_189
*1564 FILLER_11_196
*1565 FILLER_11_203
*1566 FILLER_11_210
*1567 FILLER_11_217
*1568 FILLER_11_224
*1569 FILLER_11_231
*1570 FILLER_11_238
*1571 FILLER_11_245
*1572 FILLER_11_252
*1573 FILLER_11_259
*1574 FILLER_11_266
*1575 FILLER_11_273
*1576 FILLER_11_280
*1577 FILLER_11_287
*1578 FILLER_11_294
*1579 FILLER_11_301
*1580 FILLER_11_308
*1581 FILLER_11_315
*1582 FILLER_11_322
*1583 FILLER_11_329
*1584 FILLER_11_336
*1585 FILLER_11_343
*1586 FILLER_11_350
*1587 FILLER_11_357
*1588 FILLER_11_364
*1589 FILLER_11_371
*1590 FILLER_11_378
*1591 FILLER_11_385
*1592 FILLER_11_392
*1593 FILLER_11_399
*1594 FILLER_11_406
*1595 FILLER_11_413
*1596 FILLER_11_420
*1597 FILLER_11_427
*1598 FILLER_11_429
*1599 FILLER_12_0
*1600 FILLER_12_7
*1601 FILLER_12_14
*1602 FILLER_12_21
*1603 FILLER_12_28
*1604 FILLER_12_35
*1605 FILLER_12_42
*1606 FILLER_12_49
*1607 FILLER_12_56
*1608 FILLER_12_63
*1609 FILLER_12_70
*1610 FILLER_12_77
*1611 FILLER_12_84
*1612 FILLER_12_91
*1613 FILLER_12_98
*1614 FILLER_12_105
*1615 FILLER_12_112
*1616 FILLER_12_119
*1617 FILLER_12_126
*1618 FILLER_12_133
*1619 FILLER_12_140
*1620 FILLER_12_147
*1621 FILLER_12_154
*1622 FILLER_12_161
*1623 FILLER_12_168
*1624 FILLER_12_175
*1625 FILLER_12_182
*1626 FILLER_12_189
*1627 FILLER_12_196
*1628 FILLER_12_203
*1629 FILLER_12_210
*1630 FILLER_12_217
*1631 FILLER_12_224
*1632 FILLER_12_231
*1633 FILLER_12_238
*1634 FILLER_12_245
*1635 FILLER_12_252
*1636 FILLER_12_259
*1637 FILLER_12_266
*1638 FILLER_12_273
*1639 FILLER_12_280
*1640 FILLER_12_287
*1641 FILLER_12_294
*1642 FILLER_12_301
*1643 FILLER_12_308
*1644 FILLER_12_315
*1645 FILLER_12_322
*1646 FILLER_12_329
*1647 FILLER_12_336
*1648 FILLER_12_343
*1649 FILLER_12_350
*1650 FILLER_12_357
*1651 FILLER_12_364
*1652 FILLER_12_371
*1653 FILLER_12_378
*1654 FILLER_12_385
*1655 FILLER_12_392
*1656 FILLER_12_399
*1657 FILLER_12_406
*1658 FILLER_12_413
*1659 FILLER_12_420
*1660 FILLER_12_427
*1661 FILLER_12_429
*1662 FILLER_13_0
*1663 FILLER_13_7
*1664 FILLER_13_14
*1665 FILLER_13_21
*1666 FILLER_13_28
*1667 FILLER_13_35
*1668 FILLER_13_42
*1669 FILLER_13_49
*1670 FILLER_13_56
*1671 FILLER_13_63
*1672 FILLER_13_70
*1673 FILLER_13_77
*1674 FILLER_13_84
*1675 FILLER_13_91
*1676 FILLER_13_98
*1677 FILLER_13_105
*1678 FILLER_13_112
*1679 FILLER_13_119
*1680 FILLER_13_126
*1681 FILLER_13_133
*1682 FILLER_13_140
*1683 FILLER_13_147
*1684 FILLER_13_154
*1685 FILLER_13_161
*1686 FILLER_13_168
*1687 FILLER_13_175
*1688 FILLER_13_182
*1689 FILLER_13_189
*1690 FILLER_13_196
*1691 FILLER_13_203
*1692 FILLER_13_210
*1693 FILLER_13_217
*1694 FILLER_13_224
*1695 FILLER_13_231
*1696 FILLER_13_238
*1697 FILLER_13_245
*1698 FILLER_13_252
*1699 FILLER_13_259
*1700 FILLER_13_266
*1701 FILLER_13_273
*1702 FILLER_13_280
*1703 FILLER_13_287
*1704 FILLER_13_294
*1705 FILLER_13_301
*1706 FILLER_13_308
*1707 FILLER_13_315
*1708 FILLER_13_322
*1709 FILLER_13_329
*1710 FILLER_13_336
*1711 FILLER_13_343
*1712 FILLER_13_350
*1713 FILLER_13_357
*1714 FILLER_13_364
*1715 FILLER_13_371
*1716 FILLER_13_378
*1717 FILLER_13_385
*1718 FILLER_13_392
*1719 FILLER_13_399
*1720 FILLER_13_406
*1721 FILLER_13_413
*1722 FILLER_13_420
*1723 FILLER_13_427
*1724 FILLER_13_429
*1725 FILLER_14_0
*1726 FILLER_14_7
*1727 FILLER_14_14
*1728 FILLER_14_21
*1729 FILLER_14_28
*1730 FILLER_14_35
*1731 FILLER_14_42
*1732 FILLER_14_49
*1733 FILLER_14_56
*1734 FILLER_14_63
*1735 FILLER_14_70
*1736 FILLER_14_77
*1737 FILLER_14_84
*1738 FILLER_14_91
*1739 FILLER_14_98
*1740 FILLER_14_105
*1741 FILLER_14_112
*1742 FILLER_14_119
*1743 FILLER_14_126
*1744 FILLER_14_133
*1745 FILLER_14_140
*1746 FILLER_14_147
*1747 FILLER_14_154
*1748 FILLER_14_161
*1749 FILLER_14_168
*1750 FILLER_14_175
*1751 FILLER_14_182
*1752 FILLER_14_189
*1753 FILLER_14_196
*1754 FILLER_14_203
*1755 FILLER_14_210
*1756 FILLER_14_217
*1757 FILLER_14_224
*1758 FILLER_14_231
*1759 FILLER_14_238
*1760 FILLER_14_245
*1761 FILLER_14_252
*1762 FILLER_14_259
*1763 FILLER_14_266
*1764 FILLER_14_273
*1765 FILLER_14_280
*1766 FILLER_14_287
*1767 FILLER_14_294
*1768 FILLER_14_301
*1769 FILLER_14_308
*1770 FILLER_14_315
*1771 FILLER_14_322
*1772 FILLER_14_329
*1773 FILLER_14_336
*1774 FILLER_14_343
*1775 FILLER_14_350
*1776 FILLER_14_357
*1777 FILLER_14_364
*1778 FILLER_14_371
*1779 FILLER_14_378
*1780 FILLER_14_385
*1781 FILLER_14_392
*1782 FILLER_14_399
*1783 FILLER_14_406
*1784 FILLER_14_413
*1785 FILLER_14_420
*1786 FILLER_14_427
*1787 FILLER_14_429
*1788 FILLER_15_0
*1789 FILLER_15_7
*1790 FILLER_15_14
*1791 FILLER_15_21
*1792 FILLER_15_28
*1793 FILLER_15_35
*1794 FILLER_15_42
*1795 FILLER_15_49
*1796 FILLER_15_56
*1797 FILLER_15_63
*1798 FILLER_15_70
*1799 FILLER_15_77
*1800 FILLER_15_84
*1801 FILLER_15_91
*1802 FILLER_15_98
*1803 FILLER_15_105
*1804 FILLER_15_112
*1805 FILLER_15_119
*1806 FILLER_15_126
*1807 FILLER_15_133
*1808 FILLER_15_140
*1809 FILLER_15_147
*1810 FILLER_15_154
*1811 FILLER_15_161
*1812 FILLER_15_168
*1813 FILLER_15_175
*1814 FILLER_15_182
*1815 FILLER_15_189
*1816 FILLER_15_196
*1817 FILLER_15_203
*1818 FILLER_15_210
*1819 FILLER_15_217
*1820 FILLER_15_224
*1821 FILLER_15_231
*1822 FILLER_15_238
*1823 FILLER_15_245
*1824 FILLER_15_252
*1825 FILLER_15_259
*1826 FILLER_15_266
*1827 FILLER_15_273
*1828 FILLER_15_280
*1829 FILLER_15_287
*1830 FILLER_15_294
*1831 FILLER_15_301
*1832 FILLER_15_308
*1833 FILLER_15_315
*1834 FILLER_15_322
*1835 FILLER_15_329
*1836 FILLER_15_336
*1837 FILLER_15_343
*1838 FILLER_15_350
*1839 FILLER_15_357
*1840 FILLER_15_364
*1841 FILLER_15_371
*1842 FILLER_15_378
*1843 FILLER_15_385
*1844 FILLER_15_392
*1845 FILLER_15_399
*1846 FILLER_15_406
*1847 FILLER_15_413
*1848 FILLER_15_420
*1849 FILLER_15_427
*1850 FILLER_15_429
*1851 FILLER_16_0
*1852 FILLER_16_7
*1853 FILLER_16_14
*1854 FILLER_16_21
*1855 FILLER_16_28
*1856 FILLER_16_35
*1857 FILLER_16_42
*1858 FILLER_16_49
*1859 FILLER_16_56
*1860 FILLER_16_63
*1861 FILLER_16_70
*1862 FILLER_16_77
*1863 FILLER_16_84