*SPEF "ieee 1481-1999"
*DESIGN "tt_um_tomkeddie_b"
*DATE "00:50:02 Friday November 01, 2024"
*VENDOR "The OpenROAD Project"
*PROGRAM "OpenROAD"
*VERSION "v2.0-16649-g40811f37f"
*DESIGN_FLOW "NAME_SCOPE LOCAL" "PIN_CAP NONE"
*DIVIDER /
*DELIMITER :
*BUS_DELIMITER []
*T_UNIT 1 NS
*C_UNIT 1 PF
*R_UNIT 1 OHM
*L_UNIT 1 HENRY

*NAME_MAP
*1 _0000_
*2 _0001_
*3 _0002_
*4 _0003_
*5 _0004_
*6 _0005_
*7 _0006_
*8 _0007_
*9 _0008_
*10 _0009_
*11 _0010_
*12 _0011_
*13 _0012_
*14 _0013_
*15 _0014_
*16 _0015_
*17 _0016_
*18 _0017_
*19 _0018_
*20 _0019_
*21 _0020_
*22 _0021_
*23 _0022_
*24 _0023_
*25 _0024_
*26 _0025_
*27 _0026_
*28 _0027_
*29 _0028_
*30 _0029_
*31 _0030_
*32 _0031_
*33 _0032_
*34 _0033_
*35 _0034_
*36 _0035_
*37 _0036_
*38 _0037_
*39 _0038_
*40 _0039_
*41 _0040_
*42 _0041_
*43 _0042_
*44 _0043_
*45 _0044_
*46 _0045_
*47 _0046_
*48 _0047_
*49 _0048_
*50 _0049_
*51 _0050_
*52 _0051_
*53 _0052_
*54 _0053_
*55 _0054_
*56 _0055_
*57 _0056_
*58 _0057_
*59 _0058_
*60 _0059_
*61 _0060_
*62 _0061_
*63 _0062_
*64 _0063_
*65 _0064_
*66 _0065_
*67 _0066_
*68 _0067_
*69 _0068_
*70 _0069_
*71 _0070_
*72 _0071_
*73 _0072_
*74 _0073_
*75 _0074_
*76 _0075_
*77 _0076_
*78 _0077_
*79 _0078_
*80 _0079_
*81 _0080_
*82 _0081_
*83 _0082_
*84 _0083_
*85 _0084_
*86 _0085_
*87 _0086_
*88 _0087_
*89 _0088_
*90 _0089_
*91 _0090_
*92 _0091_
*93 _0092_
*94 _0093_
*95 _0094_
*96 _0095_
*97 _0096_
*98 _0097_
*99 _0098_
*100 _0099_
*101 _0100_
*102 _0101_
*103 _0102_
*104 _0103_
*105 _0104_
*106 _0105_
*107 _0106_
*108 _0107_
*109 _0108_
*110 _0109_
*111 _0110_
*112 _0111_
*113 _0112_
*114 _0113_
*115 _0114_
*116 _0115_
*117 _0116_
*118 _0117_
*119 _0118_
*120 _0119_
*121 _0120_
*122 _0121_
*123 _0122_
*124 _0123_
*125 _0124_
*126 _0125_
*127 _0126_
*128 _0127_
*129 _0128_
*130 _0129_
*131 _0130_
*132 _0131_
*133 _0132_
*134 _0133_
*135 _0134_
*136 _0135_
*137 _0136_
*138 _0137_
*139 _0138_
*140 _0139_
*141 _0140_
*142 _0141_
*143 _0142_
*144 _0143_
*145 _0144_
*146 _0145_
*147 _0146_
*148 _0147_
*149 _0148_
*150 _0149_
*151 _0150_
*152 _0151_
*153 _0152_
*154 _0153_
*155 _0154_
*156 _0155_
*157 _0156_
*158 _0157_
*159 _0158_
*160 _0159_
*161 _0160_
*162 _0161_
*163 _0162_
*164 _0163_
*165 _0164_
*166 _0165_
*167 _0166_
*168 _0167_
*169 _0168_
*170 _0169_
*171 _0170_
*172 _0171_
*173 _0172_
*174 _0173_
*175 _0174_
*176 _0175_
*177 _0176_
*178 _0177_
*179 _0178_
*180 _0179_
*181 _0180_
*182 _0181_
*183 _0182_
*184 _0183_
*185 _0184_
*186 _0185_
*187 _0186_
*188 _0187_
*189 _0188_
*190 _0189_
*191 _0190_
*192 _0191_
*193 _0192_
*194 _0193_
*195 _0194_
*196 _0195_
*197 _0196_
*198 _0197_
*199 _0198_
*200 _0199_
*201 _0200_
*202 _0201_
*203 _0202_
*204 _0203_
*205 _0204_
*206 _0205_
*207 _0206_
*208 _0207_
*209 _0208_
*210 _0209_
*211 _0210_
*212 _0211_
*213 _0212_
*214 _0213_
*215 _0214_
*216 _0215_
*217 _0216_
*218 _0217_
*219 _0218_
*220 _0219_
*221 _0220_
*222 _0221_
*223 _0222_
*224 _0223_
*225 _0224_
*226 _0225_
*227 _0226_
*228 _0227_
*229 _0228_
*230 _0229_
*231 _0230_
*232 _0231_
*233 _0232_
*234 _0233_
*235 _0234_
*236 _0235_
*237 _0236_
*238 _0237_
*239 _0238_
*240 _0239_
*241 _0240_
*242 _0241_
*243 _0242_
*244 _0243_
*245 _0244_
*246 _0245_
*247 _0246_
*248 _0247_
*249 _0248_
*250 _0249_
*251 _0250_
*252 _0251_
*253 _0252_
*254 _0253_
*255 _0254_
*256 _0255_
*257 _0256_
*258 _0257_
*259 _0258_
*260 _0259_
*261 _0260_
*262 _0261_
*263 _0262_
*264 _0263_
*265 _0264_
*266 _0265_
*267 _0266_
*268 _0267_
*269 _0268_
*270 _0269_
*271 _0270_
*272 _0271_
*273 _0272_
*274 _0273_
*275 _0274_
*276 _0275_
*277 _0276_
*278 _0277_
*279 _0278_
*280 _0279_
*281 _0280_
*282 _0281_
*283 _0282_
*284 _0283_
*285 _0284_
*286 _0285_
*287 _0286_
*288 _0287_
*289 _0288_
*290 _0289_
*291 _0290_
*292 _0291_
*293 _0292_
*294 _0293_
*295 _0294_
*296 _0295_
*297 _0296_
*298 _0297_
*299 _0298_
*300 _0299_
*301 _0300_
*302 _0301_
*303 _0302_
*304 _0303_
*305 _0304_
*306 _0305_
*307 _0306_
*308 _0307_
*309 _0308_
*310 _0309_
*311 _0310_
*312 _0311_
*313 _0312_
*314 _0313_
*315 _0314_
*316 _0315_
*317 _0316_
*318 _0317_
*319 _0318_
*320 _0319_
*321 _0320_
*322 _0321_
*323 _0322_
*324 _0323_
*325 _0324_
*326 _0325_
*327 _0326_
*328 _0327_
*329 _0328_
*330 _0329_
*331 _0330_
*332 _0331_
*333 _0332_
*334 _0333_
*335 _0334_
*336 _0335_
*337 _0336_
*338 _0337_
*339 _0338_
*340 _0339_
*341 _0340_
*342 _0341_
*343 _0342_
*344 _0343_
*345 _0344_
*346 _0345_
*347 _0346_
*348 _0347_
*349 _0348_
*350 _0349_
*351 _0350_
*352 _0351_
*353 _0352_
*354 _0353_
*355 _0354_
*356 _0355_
*357 _0356_
*358 _0357_
*359 _0358_
*360 _0359_
*361 _0360_
*362 _0361_
*363 _0362_
*364 _0363_
*365 _0364_
*366 _0365_
*367 _0366_
*368 _0367_
*369 _0368_
*370 _0369_
*371 _0370_
*372 _0371_
*373 _0372_
*374 _0373_
*375 _0374_
*376 _0375_
*377 _0376_
*378 _0377_
*379 _0378_
*380 _0379_
*381 _0380_
*382 _0381_
*383 _0382_
*384 _0383_
*385 _0384_
*386 _0385_
*387 _0386_
*388 _0387_
*389 _0388_
*390 _0389_
*391 _0390_
*392 _0391_
*393 _0392_
*394 _0393_
*395 _0394_
*396 _0395_
*397 _0396_
*398 _0397_
*399 _0398_
*400 _0399_
*401 _0400_
*402 _0401_
*403 _0402_
*404 _0403_
*405 _0404_
*406 _0405_
*407 _0406_
*408 _0407_
*409 _0408_
*410 _0409_
*411 _0410_
*412 _0411_
*413 _0412_
*414 _0413_
*415 _0414_
*416 _0415_
*417 _0416_
*418 _0417_
*419 _0418_
*420 _0419_
*421 _0420_
*422 _0421_
*423 _0422_
*424 _0423_
*425 _0424_
*426 _0425_
*427 _0426_
*428 _0427_
*429 _0428_
*430 _0429_
*431 _0430_
*432 _0431_
*433 _0432_
*434 _0433_
*435 _0434_
*436 _0435_
*437 _0436_
*438 _0437_
*439 _0438_
*440 _0439_
*441 _0440_
*442 _0441_
*443 _0442_
*444 _0443_
*445 _0444_
*446 _0445_
*447 _0446_
*448 _0447_
*449 _0448_
*450 _0449_
*451 _0450_
*452 _0451_
*453 _0452_
*454 _0453_
*455 _0454_
*456 _0455_
*457 _0456_
*458 _0457_
*459 _0458_
*460 _0459_
*461 _0460_
*462 _0461_
*463 _0462_
*464 _0463_
*465 _0464_
*466 _0465_
*467 _0466_
*468 _0467_
*469 _0468_
*470 _0469_
*471 _0470_
*472 _0471_
*473 _0472_
*474 _0473_
*475 _0474_
*476 _0475_
*477 _0476_
*478 _0477_
*479 _0478_
*480 _0479_
*481 _0480_
*482 _0481_
*483 _0482_
*484 _0483_
*485 _0484_
*486 _0485_
*487 _0486_
*488 _0487_
*489 _0488_
*490 _0489_
*491 _0490_
*492 _0491_
*493 _0492_
*494 _0493_
*495 _0494_
*496 _0495_
*497 _0496_
*498 _0497_
*499 _0498_
*500 _0499_
*501 _0500_
*502 _0501_
*503 _0502_
*504 _0503_
*505 _0504_
*506 _0505_
*507 _0506_
*508 _0507_
*509 _0508_
*510 _0509_
*511 _0510_
*512 _0511_
*513 _0512_
*514 _0513_
*515 _0514_
*516 _0515_
*517 _0516_
*518 _0517_
*519 _0518_
*520 _0519_
*521 _0520_
*522 _0521_
*523 _0522_
*524 _0523_
*525 _0524_
*526 _0525_
*527 _0526_
*528 _0527_
*529 _0528_
*530 _0529_
*531 _0530_
*532 _0531_
*533 _0532_
*534 _0533_
*535 _0534_
*536 _0535_
*537 _0536_
*538 _0537_
*539 _0538_
*540 _0539_
*541 _0540_
*542 _0541_
*543 _0542_
*544 _0543_
*545 _0544_
*546 _0545_
*547 _0546_
*548 _0547_
*549 _0548_
*550 _0549_
*551 _0550_
*552 _0551_
*553 _0552_
*554 _0553_
*555 _0554_
*556 _0555_
*557 _0556_
*558 _0557_
*559 _0558_
*560 _0559_
*561 _0560_
*562 _0561_
*563 _0562_
*564 _0563_
*565 _0564_
*566 clknet_0_clk
*567 net35
*568 clk
*569 ena
*570 rst_n
*571 tx_pin0
*572 tx_pin1
*573 tx_pin2
*574 tx_pin3
*575 tx_pin4
*576 uart_tx\.bit_counter\[0\]
*577 uart_tx\.bit_counter\[1\]
*578 uart_tx\.bit_counter\[2\]
*579 uart_tx\.bit_counter\[3\]
*580 uart_tx\.text_index\[0\]
*581 uart_tx\.text_index\[1\]
*582 uart_tx\.text_index\[2\]
*583 uart_tx\.text_index\[3\]
*584 uart_tx\.text_index\[4\]
*585 uart_tx\.text_index\[5\]
*586 ui_in[0]
*587 ui_in[1]
*588 ui_in[2]
*589 ui_in[3]
*590 ui_in[4]
*591 ui_in[5]
*592 ui_in[6]
*593 ui_in[7]
*594 uio_in[0]
*595 uio_in[1]
*596 uio_in[2]
*597 uio_in[3]
*598 uio_in[4]
*599 uio_in[5]
*600 uio_in[6]
*601 uio_in[7]
*602 uio_oe[0]
*603 uio_oe[1]
*604 uio_oe[2]
*605 uio_oe[3]
*606 uio_oe[4]
*607 uio_oe[5]
*608 uio_oe[6]
*609 uio_oe[7]
*610 uio_out[0]
*611 uio_out[1]
*612 uio_out[2]
*613 uio_out[3]
*614 uio_out[4]
*615 uio_out[5]
*616 uio_out[6]
*617 uio_out[7]
*618 uo_out[0]
*619 uo_out[1]
*620 uo_out[2]
*621 uo_out[3]
*622 uo_out[4]
*623 uo_out[5]
*624 uo_out[6]
*625 uo_out[7]
*628 net1
*629 net2
*630 net3
*631 net4
*632 net5
*633 net6
*634 net7
*635 net8
*636 net9
*637 net10
*638 net11
*639 net12
*640 net13
*641 net14
*642 net15
*643 net16
*644 net17
*645 net18
*646 net19
*647 net20
*648 net21
*649 net22
*650 net23
*651 net24
*652 net25
*653 net26
*654 net27
*655 net28
*656 net29
*657 net30
*658 net31
*659 net32
*660 net33
*661 net34
*662 net36
*663 net37
*664 net38
*665 net39
*666 net40
*667 net41
*668 net42
*669 net43
*670 net44
*671 net45
*672 net46
*673 net47
*674 net48
*675 net49
*676 clknet_2_0__leaf_clk
*677 clknet_2_1__leaf_clk
*678 clknet_2_2__leaf_clk
*679 clknet_2_3__leaf_clk
*680 _0567_
*681 _0568_
*682 _0569_
*683 _0570_
*684 _0571_
*685 _0572_
*686 _0573_
*687 _0574_
*688 _0575_
*689 _0576_
*690 _0577_
*691 _0578_
*692 _0579_
*693 _0580_
*694 _0581_
*695 _0582_
*696 _0583_
*697 _0584_
*698 _0585_
*699 _0586_
*700 _0587_
*701 _0588_
*702 _0589_
*703 _0590_
*704 _0591_
*705 _0592_
*706 _0593_
*707 _0594_
*708 _0595_
*709 _0596_
*710 _0597_
*711 _0598_
*712 _0599_
*713 _0600_
*714 _0601_
*715 _0602_
*716 _0603_
*717 _0604_
*718 _0605_
*719 _0606_
*720 _0607_
*721 _0608_
*722 _0609_
*723 _0610_
*724 _0611_
*725 _0612_
*726 _0613_
*727 _0614_
*728 _0615_
*729 _0616_
*730 _0617_
*731 _0618_
*732 _0619_
*733 _0620_
*734 _0621_
*735 _0622_
*736 _0623_
*737 _0624_
*738 _0625_
*739 _0626_
*740 _0627_
*741 _0628_
*742 _0629_
*743 _0630_
*744 _0631_
*745 _0632_
*746 _0633_
*747 _0634_
*748 _0635_
*749 _0636_
*750 _0637_
*751 _0638_
*752 _0639_
*753 _0640_
*754 _0641_
*755 _0642_
*756 _0643_
*757 _0644_
*758 _0645_
*759 _0646_
*760 _0647_
*761 _0648_
*762 _0649_
*763 _0650_
*764 _0651_
*765 _0652_
*766 _0653_
*767 _0654_
*768 _0655_
*769 _0656_
*770 _0657_
*771 _0658_
*772 _0659_
*773 _0660_
*774 _0661_
*775 _0662_
*776 _0663_
*777 _0664_
*778 _0665_
*779 _0666_
*780 _0667_
*781 _0668_
*782 _0669_
*783 _0670_
*784 _0671_
*785 _0672_
*786 _0673_
*787 _0674_
*788 _0675_
*789 _0676_
*790 _0677_
*791 _0678_
*792 _0679_
*793 _0680_
*794 _0681_
*795 _0682_
*796 _0683_
*797 _0684_
*798 _0685_
*799 _0686_
*800 _0687_
*801 _0688_
*802 _0689_
*803 _0690_
*804 _0691_
*805 _0692_
*806 _0693_
*807 _0694_
*808 _0695_
*809 _0696_
*810 _0697_
*811 _0698_
*812 _0699_
*813 _0700_
*814 _0701_
*815 _0702_
*816 _0703_
*817 _0704_
*818 _0705_
*819 _0706_
*820 _0707_
*821 _0708_
*822 _0709_
*823 _0710_
*824 _0711_
*825 _0712_
*826 _0713_
*827 _0714_
*828 _0715_
*829 _0716_
*830 _0717_
*831 _0718_
*832 _0719_
*833 _0720_
*834 _0721_
*835 _0722_
*836 _0723_
*837 _0724_
*838 _0725_
*839 _0726_
*840 _0727_
*841 _0728_
*842 _0729_
*843 _0730_
*844 _0731_
*845 _0732_
*846 _0733_
*847 _0734_
*848 _0735_
*849 _0736_
*850 _0737_
*851 _0738_
*852 _0739_
*853 _0740_
*854 _0741_
*855 _0742_
*856 _0743_
*857 _0744_
*858 _0745_
*859 _0746_
*860 _0747_
*861 _0748_
*862 _0749_
*863 _0750_
*864 _0751_
*865 _0752_
*866 _0753_
*867 _0754_
*868 _0755_
*869 _0756_
*870 _0757_
*871 _0758_
*872 _0759_
*873 _0760_
*874 _0761_
*875 _0762_
*876 _0763_
*877 _0764_
*878 _0765_
*879 _0766_
*880 _0767_
*881 _0768_
*882 _0769_
*883 _0770_
*884 _0771_
*885 _0772_
*886 _0773_
*887 _0774_
*888 _0775_
*889 _0776_
*890 _0777_
*891 _0778_
*892 _0779_
*893 _0780_
*894 _0781_
*895 _0782_
*896 _0783_
*897 _0784_
*898 _0785_
*899 _0786_
*900 _0787_
*901 _0788_
*902 _0789_
*903 _0790_
*904 _0791_
*905 _0792_
*906 _0793_
*907 _0794_
*908 _0795_
*909 _0796_
*910 _0797_
*911 _0798_
*912 _0799_
*913 _0800_
*914 _0801_
*915 _0802_
*916 _0803_
*917 _0804_
*918 _0805_
*919 _0806_
*920 _0807_
*921 _0808_
*922 _0809_
*923 _0810_
*924 _0811_
*925 _0812_
*926 _0813_
*927 _0814_
*928 _0815_
*929 _0816_
*930 _0817_
*931 _0818_
*932 _0819_
*933 _0820_
*934 _0821_
*935 _0822_
*936 _0823_
*937 _0824_
*938 _0825_
*939 _0826_
*940 _0827_
*941 _0828_
*942 _0829_
*943 _0830_
*944 _0831_
*945 _0832_
*946 _0833_
*947 _0834_
*948 _0835_
*949 _0836_
*950 _0837_
*951 _0838_
*952 _0839_
*953 _0840_
*954 _0841_
*955 _0842_
*956 _0843_
*957 _0844_
*958 _0845_
*959 _0846_
*960 _0847_
*961 _0848_
*962 _0849_
*963 _0850_
*964 _0851_
*965 _0852_
*966 _0853_
*967 _0854_
*968 _0855_
*969 _0856_
*970 _0857_
*971 _0858_
*972 _0859_
*973 _0860_
*974 _0861_
*975 _0862_
*976 _0863_
*977 _0864_
*978 _0865_
*979 _0866_
*980 _0867_
*981 _0868_
*982 _0869_
*983 _0870_
*984 _0871_
*985 _0872_
*986 _0873_
*987 _0874_
*988 _0875_
*989 _0876_
*990 _0877_
*991 _0878_
*992 _0879_
*993 _0880_
*994 _0881_
*995 _0882_
*996 _0883_
*997 _0884_
*998 _0885_
*999 _0886_
*1000 _0887_
*1001 _0888_
*1002 _0889_
*1003 _0890_
*1004 _0891_
*1005 _0892_
*1006 _0893_
*1007 _0894_
*1008 _0895_
*1009 _0896_
*1010 _0897_
*1011 _0898_
*1012 _0899_
*1013 _0900_
*1014 _0901_
*1015 _0902_
*1016 _0903_
*1017 _0904_
*1018 _0905_
*1019 _0906_
*1020 _0907_
*1021 _0908_
*1022 _0909_
*1023 _0910_
*1024 _0911_
*1025 _0912_
*1026 _0913_
*1027 _0914_
*1028 _0915_
*1029 _0916_
*1030 _0917_
*1031 _0918_
*1032 _0919_
*1033 _0920_
*1034 _0921_
*1035 _0922_
*1036 _0923_
*1037 _0924_
*1038 _0925_
*1039 _0926_
*1040 _0927_
*1041 _0928_
*1042 _0929_
*1043 _0930_
*1044 _0931_
*1045 _0932_
*1046 _0933_
*1047 _0934_
*1048 _0935_
*1049 _0936_
*1050 _0937_
*1051 _0938_
*1052 _0939_
*1053 _0940_
*1054 _0941_
*1055 _0942_
*1056 _0943_
*1057 _0944_
*1058 _0945_
*1059 _0946_
*1060 _0947_
*1061 _0948_
*1062 _0949_
*1063 _0950_
*1064 _0951_
*1065 _0952_
*1066 _0953_
*1067 _0954_
*1068 _0955_
*1069 _0956_
*1070 _0957_
*1071 _0958_
*1072 _0959_
*1073 _0960_
*1074 _0961_
*1075 _0962_
*1076 _0963_
*1077 _0964_
*1078 _0965_
*1079 _0966_
*1080 _0967_
*1081 _0968_
*1082 _0969_
*1083 _0970_
*1084 _0971_
*1085 _0972_
*1086 _0973_
*1087 _0974_
*1088 _0975_
*1089 _0976_
*1090 _0977_
*1091 _0978_
*1092 _0979_
*1093 _0980_
*1094 _0981_
*1095 _0982_
*1096 _0983_
*1097 _0984_
*1098 _0985_
*1099 _0986_
*1100 _0987_
*1101 _0988_
*1102 _0989_
*1103 _0990_
*1104 _0991_
*1105 _0992_
*1106 _0993_
*1107 _0994_
*1108 _0995_
*1109 _0996_
*1110 _0997_
*1111 _0998_
*1112 _0999_
*1113 _1000_
*1114 _1001_
*1115 _1002_
*1116 _1003_
*1117 _1004_
*1118 _1005_
*1119 _1006_
*1120 _1007_
*1121 _1008_
*1122 _1009_
*1123 _1010_
*1124 _1011_
*1125 _1012_
*1126 _1013_
*1127 _1014_
*1128 _1015_
*1129 _1016_
*1130 _1017_
*1131 _1018_
*1132 _1019_
*1133 _1020_
*1134 _1021_
*1135 _1022_
*1136 _1023_
*1137 _1024_
*1138 _1025_
*1139 _1026_
*1140 _1027_
*1141 _1028_
*1142 _1029_
*1143 _1030_
*1144 _1031_
*1145 _1032_
*1146 _1033_
*1147 _1034_
*1148 _1035_
*1149 _1036_
*1150 _1037_
*1151 _1038_
*1152 _1039_
*1153 _1040_
*1154 _1041_
*1155 _1042_
*1156 _1043_
*1157 _1044_
*1158 _1045_
*1159 _1046_
*1160 _1047_
*1161 _1048_
*1162 _1049_
*1163 _1050_
*1164 _1051_
*1165 _1052_
*1166 _1053_
*1167 _1054_
*1168 _1055_
*1169 _1056_
*1170 _1057_
*1171 _1058_
*1172 _1059_
*1173 _1060_
*1174 _1061_
*1175 _1062_
*1176 _1063_
*1177 _1064_
*1178 _1065_
*1179 _1066_
*1180 _1067_
*1181 _1068_
*1182 _1069_
*1183 _1070_
*1184 _1071_
*1185 _1072_
*1186 _1073_
*1187 _1074_
*1188 _1075_
*1189 _1076_
*1190 _1077_
*1191 _1078_
*1192 _1079_
*1193 _1080_
*1194 _1081_
*1195 _1082_
*1196 _1083_
*1197 _1084_
*1198 _1085_
*1199 _1086_
*1200 _1087_
*1201 _1088_
*1202 _1089_
*1203 _1090_
*1204 _1091_
*1205 _1092_
*1206 _1093_
*1207 _1094_
*1208 _1095_
*1209 _1096_
*1210 _1097_
*1211 _1098_
*1212 _1099_
*1213 _1100_
*1214 _1101_
*1215 _1102_
*1216 _1103_
*1217 _1104_
*1218 _1105_
*1219 _1106_
*1220 _1107_
*1221 _1108_
*1222 _1109_
*1223 _1110_
*1224 _1111_
*1225 _1112_
*1226 _1113_
*1227 _1114_
*1228 _1115_
*1229 _1116_
*1230 clkbuf_0_clk
*1231 uart_tx\.bit_counter\[0\]\$_SDFF_PP0__35
*1232 _1119_
*1233 _1120_
*1234 _1121_
*1235 _1122_
*1236 _1123_
*1237 _1124_
*1238 _1125_
*1239 _1126_
*1240 _1127_
*1241 _1128_
*1242 _1129_
*1243 _1130_
*1244 _1131_
*1245 _1132_
*1246 _1133_
*1247 _1134_
*1248 _1135_
*1249 _1136_
*1250 _1137_
*1251 _1138_
*1252 _1139_
*1253 _1140_
*1254 _1141_
*1255 _1142_
*1256 uart_tx\.bit_counter\[0\]\$_SDFF_PP0_
*1257 uart_tx\.bit_counter\[1\]\$_SDFF_PP0_
*1258 uart_tx\.bit_counter\[2\]\$_SDFF_PP0_
*1259 uart_tx\.bit_counter\[3\]\$_SDFF_PP0_
*1260 uart_tx\.text_index\[0\]\$_SDFFE_PN0P_
*1261 uart_tx\.text_index\[1\]\$_SDFFE_PN0P_
*1262 uart_tx\.text_index\[2\]\$_SDFFE_PN0P_
*1263 uart_tx\.text_index\[3\]\$_SDFFE_PN0P_
*1264 uart_tx\.text_index\[4\]\$_SDFFE_PN0P_
*1265 uart_tx\.text_index\[5\]\$_SDFFE_PN0P_
*1266 uart_tx\.tx_pin0_int\$_SDFF_PN1_
*1267 uart_tx\.tx_pin1_int\$_SDFF_PN1_
*1268 uart_tx\.tx_pin2_int\$_SDFF_PN1_
*1269 uart_tx\.tx_pin3_int\$_SDFF_PN1_
*1270 uart_tx\.tx_pin4_int\$_SDFF_PN1_
*1271 input1
*1272 output2
*1273 output3
*1274 output4
*1275 output5
*1276 output6
*1277 fanout7
*1278 fanout8
*1279 fanout9
*1280 fanout10
*1281 fanout11
*1282 fanout12
*1283 fanout13
*1284 fanout14
*1285 fanout15
*1286 _1119__16
*1287 _1120__17
*1288 _1121__18
*1289 _1122__19
*1290 _1123__20
*1291 _1124__21
*1292 _1125__22
*1293 _1126__23
*1294 _1127__24
*1295 _1128__25
*1296 _1129__26
*1297 _1130__27
*1298 _1131__28
*1299 _1132__29
*1300 _1133__30
*1301 _1134__31
*1302 _1140__32
*1303 _1141__33
*1304 _1142__34
*1305 uart_tx\.bit_counter\[1\]\$_SDFF_PP0__36
*1306 uart_tx\.bit_counter\[2\]\$_SDFF_PP0__37
*1307 uart_tx\.bit_counter\[3\]\$_SDFF_PP0__38
*1308 uart_tx\.text_index\[0\]\$_SDFFE_PN0P__39
*1309 uart_tx\.text_index\[1\]\$_SDFFE_PN0P__40
*1310 uart_tx\.text_index\[2\]\$_SDFFE_PN0P__41
*1311 uart_tx\.text_index\[3\]\$_SDFFE_PN0P__42
*1312 uart_tx\.text_index\[4\]\$_SDFFE_PN0P__43
*1313 uart_tx\.text_index\[5\]\$_SDFFE_PN0P__44
*1314 uart_tx\.tx_pin0_int\$_SDFF_PN1__45
*1315 uart_tx\.tx_pin1_int\$_SDFF_PN1__46
*1316 uart_tx\.tx_pin2_int\$_SDFF_PN1__47
*1317 uart_tx\.tx_pin3_int\$_SDFF_PN1__48
*1318 uart_tx\.tx_pin4_int\$_SDFF_PN1__49
*1319 clkbuf_2_0__f_clk
*1320 clkbuf_2_1__f_clk
*1321 clkbuf_2_2__f_clk
*1322 clkbuf_2_3__f_clk
*1323 clkload0
*1324 FILLER_0_0
*1325 FILLER_0_7
*1326 FILLER_0_14
*1327 FILLER_0_21
*1328 FILLER_0_28
*1329 FILLER_0_35
*1330 FILLER_0_42
*1331 FILLER_0_49
*1332 FILLER_0_56
*1333 FILLER_0_63
*1334 FILLER_0_70
*1335 FILLER_0_77
*1336 FILLER_0_84
*1337 FILLER_0_91
*1338 FILLER_0_98
*1339 FILLER_0_105
*1340 FILLER_0_112
*1341 FILLER_0_119
*1342 FILLER_0_126
*1343 FILLER_0_133
*1344 FILLER_0_140
*1345 FILLER_0_147
*1346 FILLER_0_154
*1347 FILLER_0_161
*1348 FILLER_0_168
*1349 FILLER_0_175
*1350 FILLER_0_182
*1351 FILLER_0_189
*1352 FILLER_0_196
*1353 FILLER_0_203
*1354 FILLER_0_210
*1355 FILLER_0_217
*1356 FILLER_0_224
*1357 FILLER_0_231
*1358 FILLER_0_238
*1359 FILLER_0_245
*1360 FILLER_0_252
*1361 FILLER_0_259
*1362 FILLER_0_266
*1363 FILLER_0_273
*1364 FILLER_0_280
*1365 FILLER_0_287
*1366 FILLER_0_294
*1367 FILLER_0_301
*1368 FILLER_0_308
*1369 FILLER_0_315
*1370 FILLER_0_322
*1371 FILLER_0_329
*1372 FILLER_0_336
*1373 FILLER_0_343
*1374 FILLER_0_350
*1375 FILLER_0_357
*1376 FILLER_0_364
*1377 FILLER_0_371
*1378 FILLER_0_378
*1379 FILLER_0_385
*1380 FILLER_0_392
*1381 FILLER_0_399
*1382 FILLER_0_406
*1383 FILLER_0_413
*1384 FILLER_0_420
*1385 FILLER_0_427
*1386 FILLER_0_429
*1387 FILLER_1_0
*1388 FILLER_1_7
*1389 FILLER_1_14
*1390 FILLER_1_21
*1391 FILLER_1_28
*1392 FILLER_1_35
*1393 FILLER_1_42
*1394 FILLER_1_49
*1395 FILLER_1_56
*1396 FILLER_1_63
*1397 FILLER_1_70
*1398 FILLER_1_77
*1399 FILLER_1_84
*1400 FILLER_1_91
*1401 FILLER_1_98
*1402 FILLER_1_105
*1403 FILLER_1_112
*1404 FILLER_1_119
*1405 FILLER_1_126
*1406 FILLER_1_133
*1407 FILLER_1_140
*1408 FILLER_1_147
*1409 FILLER_1_154
*1410 FILLER_1_161
*1411 FILLER_1_168
*1412 FILLER_1_175
*1413 FILLER_1_182
*1414 FILLER_1_189
*1415 FILLER_1_196
*1416 FILLER_1_203
*1417 FILLER_1_210
*1418 FILLER_1_217
*1419 FILLER_1_224
*1420 FILLER_1_231
*1421 FILLER_1_238
*1422 FILLER_1_245
*1423 FILLER_1_252
*1424 FILLER_1_259
*1425 FILLER_1_266
*1426 FILLER_1_273
*1427 FILLER_1_280
*1428 FILLER_1_287
*1429 FILLER_1_294
*1430 FILLER_1_301
*1431 FILLER_1_308
*1432 FILLER_1_315
*1433 FILLER_1_322
*1434 FILLER_1_329
*1435 FILLER_1_336
*1436 FILLER_1_343
*1437 FILLER_1_350
*1438 FILLER_1_357
*1439 FILLER_1_364
*1440 FILLER_1_371
*1441 FILLER_1_378
*1442 FILLER_1_385
*1443 FILLER_1_392
*1444 FILLER_1_399
*1445 FILLER_1_406
*1446 FILLER_1_413
*1447 FILLER_1_420
*1448 FILLER_1_427
*1449 FILLER_1_429
*1450 FILLER_2_0
*1451 FILLER_2_7
*1452 FILLER_2_14
*1453 FILLER_2_21
*1454 FILLER_2_28
*1455 FILLER_2_35
*1456 FILLER_2_42
*1457 FILLER_2_49
*1458 FILLER_2_56
*1459 FILLER_2_63
*1460 FILLER_2_70
*1461 FILLER_2_77
*1462 FILLER_2_84
*1463 FILLER_2_91
*1464 FILLER_2_98
*1465 FILLER_2_105
*1466 FILLER_2_112
*1467 FILLER_2_119
*1468 FILLER_2_126
*1469 FILLER_2_133
*1470 FILLER_2_140
*1471 FILLER_2_147
*1472 FILLER_2_154
*1473 FILLER_2_161
*1474 FILLER_2_168
*1475 FILLER_2_175
*1476 FILLER_2_182
*1477 FILLER_2_189
*1478 FILLER_2_196
*1479 FILLER_2_203
*1480 FILLER_2_210
*1481 FILLER_2_217
*1482 FILLER_2_224
*1483 FILLER_2_231
*1484 FILLER_2_238
*1485 FILLER_2_245
*1486 FILLER_2_252
*1487 FILLER_2_259
*1488 FILLER_2_266
*1489 FILLER_2_273
*1490 FILLER_2_280
*1491 FILLER_2_287
*1492 FILLER_2_294
*1493 FILLER_2_301
*1494 FILLER_2_308
*1495 FILLER_2_315
*1496 FILLER_2_322
*1497 FILLER_2_329
*1498 FILLER_2_336
*1499 FILLER_2_343
*1500 FILLER_2_350
*1501 FILLER_2_357
*1502 FILLER_2_364
*1503 FILLER_2_371
*1504 FILLER_2_378
*1505 FILLER_2_385
*1506 FILLER_2_392
*1507 FILLER_2_399
*1508 FILLER_2_406
*1509 FILLER_2_413
*1510 FILLER_2_420
*1511 FILLER_2_427
*1512 FILLER_2_429
*1513 FILLER_3_0
*1514 FILLER_3_7
*1515 FILLER_3_14
*1516 FILLER_3_21
*1517 FILLER_3_28
*1518 FILLER_3_35
*1519 FILLER_3_42
*1520 FILLER_3_49
*1521 FILLER_3_56
*1522 FILLER_3_63
*1523 FILLER_3_70
*1524 FILLER_3_77
*1525 FILLER_3_84
*1526 FILLER_3_91
*1527 FILLER_3_98
*1528 FILLER_3_105
*1529 FILLER_3_112
*1530 FILLER_3_119
*1531 FILLER_3_126
*1532 FILLER_3_133
*1533 FILLER_3_140
*1534 FILLER_3_147
*1535 FILLER_3_154
*1536 FILLER_3_161
*1537 FILLER_3_168
*1538 FILLER_3_175
*1539 FILLER_3_182
*1540 FILLER_3_189
*1541 FILLER_3_196
*1542 FILLER_3_203
*1543 FILLER_3_210
*1544 FILLER_3_217
*1545 FILLER_3_224
*1546 FILLER_3_231
*1547 FILLER_3_238
*1548 FILLER_3_245
*1549 FILLER_3_252
*1550 FILLER_3_259
*1551 FILLER_3_266
*1552 FILLER_3_273
*1553 FILLER_3_280
*1554 FILLER_3_287
*1555 FILLER_3_294
*1556 FILLER_3_301
*1557 FILLER_3_308
*1558 FILLER_3_315
*1559 FILLER_3_322
*1560 FILLER_3_329
*1561 FILLER_3_336
*1562 FILLER_3_343
*1563 FILLER_3_350
*1564 FILLER_3_357
*1565 FILLER_3_364
*1566 FILLER_3_371
*1567 FILLER_3_378
*1568 FILLER_3_385
*1569 FILLER_3_392
*1570 FILLER_3_399
*1571 FILLER_3_406
*1572 FILLER_3_413
*1573 FILLER_3_420
*1574 FILLER_3_427
*1575 FILLER_3_429
*1576 FILLER_4_0
*1577 FILLER_4_7
*1578 FILLER_4_14
*1579 FILLER_4_21
*1580 FILLER_4_28
*1581 FILLER_4_35
*1582 FILLER_4_42
*1583 FILLER_4_49
*1584 FILLER_4_56
*1585 FILLER_4_63
*1586 FILLER_4_70
*1587 FILLER_4_77
*1588 FILLER_4_84
*1589 FILLER_4_91
*1590 FILLER_4_98
*1591 FILLER_4_105
*1592 FILLER_4_112
*1593 FILLER_4_119
*1594 FILLER_4_126
*1595 FILLER_4_133
*1596 FILLER_4_140
*1597 FILLER_4_147
*1598 FILLER_4_154
*1599 FILLER_4_161
*1600 FILLER_4_168
*1601 FILLER_4_175
*1602 FILLER_4_182
*1603 FILLER_4_189
*1604 FILLER_4_196
*1605 FILLER_4_203
*1606 FILLER_4_210
*1607 FILLER_4_217
*1608 FILLER_4_224
*1609 FILLER_4_231
*1610 FILLER_4_238
*1611 FILLER_4_245
*1612 FILLER_4_252
*1613 FILLER_4_259
*1614 FILLER_4_266
*1615 FILLER_4_273
*1616 FILLER_4_280
*1617 FILLER_4_287
*1618 FILLER_4_294
*1619 FILLER_4_301
*1620 FILLER_4_308
*1621 FILLER_4_315
*1622 FILLER_4_322
*1623 FILLER_4_329
*1624 FILLER_4_336
*1625 FILLER_4_343
*1626 FILLER_4_350
*1627 FILLER_4_357
*1628 FILLER_4_364
*1629 FILLER_4_371
*1630 FILLER_4_378
*1631 FILLER_4_385
*1632 FILLER_4_392
*1633 FILLER_4_399
*1634 FILLER_4_406
*1635 FILLER_4_413
*1636 FILLER_4_420
*1637 FILLER_4_427
*1638 FILLER_4_429
*1639 FILLER_5_0
*1640 FILLER_5_7
*1641 FILLER_5_14
*1642 FILLER_5_21
*1643 FILLER_5_28
*1644 FILLER_5_35
*1645 FILLER_5_42
*1646 FILLER_5_49
*1647 FILLER_5_56
*1648 FILLER_5_63
*1649 FILLER_5_70
*1650 FILLER_5_77
*1651 FILLER_5_84
*1652 FILLER_5_91
*1653 FILLER_5_98
*1654 FILLER_5_105
*1655 FILLER_5_112
*1656 FILLER_5_119
*1657 FILLER_5_126
*1658 FILLER_5_133
*1659 FILLER_5_140
*1660 FILLER_5_147
*1661 FILLER_5_154
*1662 FILLER_5_161
*1663 FILLER_5_168
*1664 FILLER_5_175
*1665 FILLER_5_182
*1666 FILLER_5_189
*1667 FILLER_5_196
*1668 FILLER_5_203
*1669 FILLER_5_210
*1670 FILLER_5_217
*1671 FILLER_5_224
*1672 FILLER_5_231
*1673 FILLER_5_238
*1674 FILLER_5_245
*1675 FILLER_5_252
*1676 FILLER_5_259
*1677 FILLER_5_266
*1678 FILLER_5_273
*1679 FILLER_5_280
*1680 FILLER_5_287
*1681 FILLER_5_294
*1682 FILLER_5_301
*1683 FILLER_5_308
*1684 FILLER_5_315
*1685 FILLER_5_322
*1686 FILLER_5_329
*1687 FILLER_5_336
*1688 FILLER_5_343
*1689 FILLER_5_350
*1690 FILLER_5_357
*1691 FILLER_5_364
*1692 FILLER_5_371
*1693 FILLER_5_378
*1694 FILLER_5_385
*1695 FILLER_5_392
*1696 FILLER_5_399
*1697 FILLER_5_406
*1698 FILLER_5_413
*1699 FILLER_5_420
*1700 FILLER_5_427
*1701 FILLER_5_429
*1702 FILLER_6_0
*1703 FILLER_6_7
*1704 FILLER_6_14
*1705 FILLER_6_21
*1706 FILLER_6_28
*1707 FILLER_6_35
*1708 FILLER_6_42
*1709 FILLER_6_49
*1710 FILLER_6_56
*1711 FILLER_6_63
*1712 FILLER_6_70
*1713 FILLER_6_77
*1714 FILLER_6_84
*1715 FILLER_6_91
*1716 FILLER_6_98
*1717 FILLER_6_105
*1718 FILLER_6_112
*1719 FILLER_6_119
*1720 FILLER_6_126
*1721 FILLER_6_133
*1722 FILLER_6_140
*1723 FILLER_6_147
*1724 FILLER_6_154
*1725 FILLER_6_161
*1726 FILLER_6_168
*1727 FILLER_6_175
*1728 FILLER_6_182
*1729 FILLER_6_189
*1730 FILLER_6_196
*1731 FILLER_6_203
*1732 FILLER_6_210
*1733 FILLER_6_217
*1734 FILLER_6_224
*1735 FILLER_6_231
*1736 FILLER_6_238
*1737 FILLER_6_245
*1738 FILLER_6_252
*1739 FILLER_6_259
*1740 FILLER_6_266
*1741 FILLER_6_273
*1742 FILLER_6_280
*1743 FILLER_6_287
*1744 FILLER_6_294
*1745 FILLER_6_301
*1746 FILLER_6_308
*1747 FILLER_6_315
*1748 FILLER_6_322
*1749 FILLER_6_329
*1750 FILLER_6_336
*1751 FILLER_6_343
*1752 FILLER_6_350
*1753 FILLER_6_357
*1754 FILLER_6_364
*1755 FILLER_6_371
*1756 FILLER_6_378
*1757 FILLER_6_385
*1758 FILLER_6_392
*1759 FILLER_6_399
*1760 FILLER_6_406
*1761 FILLER_6_413
*1762 FILLER_6_420
*1763 FILLER_6_427
*1764 FILLER_6_429
*1765 FILLER_7_0
*1766 FILLER_7_7
*1767 FILLER_7_14
*1768 FILLER_7_21
*1769 FILLER_7_28
*1770 FILLER_7_35
*1771 FILLER_7_42
*1772 FILLER_7_49
*1773 FILLER_7_56
*1774 FILLER_7_63
*1775 FILLER_7_70
*1776 FILLER_7_77
*1777 FILLER_7_84
*1778 FILLER_7_91
*1779 FILLER_7_98
*1780 FILLER_7_105
*1781 FILLER_7_112
*1782 FILLER_7_119
*1783 FILLER_7_126
*1784 FILLER_7_133
*1785 FILLER_7_140
*1786 FILLER_7_147
*1787 FILLER_7_154
*1788 FILLER_7_161
*1789 FILLER_7_168
*1790 FILLER_7_175
*1791 FILLER_7_182
*1792 FILLER_7_189
*1793 FILLER_7_196
*1794 FILLER_7_203
*1795 FILLER_7_210
*1796 FILLER_7_217
*1797 FILLER_7_224
*1798 FILLER_7_231
*1799 FILLER_7_238
*1800 FILLER_7_245
*1801 FILLER_7_252
*1802 FILLER_7_259
*1803 FILLER_7_266
*1804 FILLER_7_273
*1805 FILLER_7_280
*1806 FILLER_7_287
*1807 FILLER_7_294
*1808 FILLER_7_301
*1809 FILLER_7_308
*1810 FILLER_7_315
*1811 FILLER_7_322
*1812 FILLER_7_329
*1813 FILLER_7_336
*1814 FILLER_7_343
*1815 FILLER_7_350
*1816 FILLER_7_357
*1817 FILLER_7_364
*1818 FILLER_7_371
*1819 FILLER_7_378
*1820 FILLER_7_385
*1821 FILLER_7_392
*1822 FILLER_7_399
*1823 FILLER_7_406
*1824 FILLER_7_413
*1825 FILLER_7_420
*1826 FILLER_7_427
*1827 FILLER_7_429
*1828 FILLER_8_0
*1829 FILLER_8_7
*1830 FILLER_8_14
*1831 FILLER_8_21
*1832 FILLER_8_28
*1833 FILLER_8_35
*1834 FILLER_8_42
*1835 FILLER_8_49
*1836 FILLER_8_56
*1837 FILLER_8_63
*1838 FILLER_8_70
*1839 FILLER_8_77
*1840 FILLER_8_84
*1841 FILLER_8_91
*1842 FILLER_8_98
*1843 FILLER_8_105
*1844 FILLER_8_112
*1845 FILLER_8_119
*1846 FILLER_8_126
*1847 FILLER_8_133
*1848 FILLER_8_140
*1849 FILLER_8_147
*1850 FILLER_8_154
*1851 FILLER_8_161
*1852 FILLER_8_168
*1853 FILLER_8_175
*1854 FILLER_8_182
*1855 FILLER_8_189
*1856 FILLER_8_196
*1857 FILLER_8_203
*1858 FILLER_8_210
*1859 FILLER_8_217
*1860 FILLER_8_224
*1861 FILLER_8_231
*1862 FILLER_8_238
*1863 FILLER_8_245
*1864 FILLER_8_252
*1865 FILLER_8_259
*1866 FILLER_8_266
*1867 FILLER_8_273
*1868 FILLER_8_280
*1869 FILLER_8_287
*1870 FILLER_8_294
*1871 FILLER_8_301
*1872 FILLER_8_308
*1873 FILLER_8_315
*1874 FILLER_8_322
*1875 FILLER_8_329
*1876 FILLER_8_336
*1877 FILLER_8_343
*1878 FILLER_8_350
*1879 FILLER_8_357
*1880 FILLER_8_364
*1881 FILLER_8_371
*1882 FILLER_8_378
*1883 FILLER_8_385
*1884 FILLER_8_392
*1885 FILLER_8_399
*1886 FILLER_8_406
*1887 FILLER_8_413
*1888 FILLER_8_420
*1889 FILLER_8_427
*1890 FILLER_8_429
*1891 FILLER_9_0
*1892 FILLER_9_7
*1893 FILLER_9_14
*1894 FILLER_9_21
*1895 FILLER_9_28
*1896 FILLER_9_35
*1897 FILLER_9_42
*1898 FILLER_9_49
*1899 FILLER_9_56
*1900 FILLER_9_63
*1901 FILLER_9_70
*1902 FILLER_9_77
*1903 FILLER_9_84
*1904 FILLER_9_91
*1905 FILLER_9_98
*1906 FILLER_9_105
*1907 FILLER_9_112
*1908 FILLER_9_119
*1909 FILLER_9_126
*1910 FILLER_9_133
*1911 FILLER_9_140
*1912 FILLER_9_147
*1913 FILLER_9_154
*1914 FILLER_9_161
*1915 FILLER_9_168
*1916 FILLER_9_175
*1917 FILLER_9_182
*1918 FILLER_9_189
*1919 FILLER_9_196
*1920 FILLER_9_203
*1921 FILLER_9_210
*1922 FILLER_9_217
*1923 FILLER_9_224
*1924 FILLER_9_231
*1925 FILLER_9_238
*1926 FILLER_9_245
*1927 FILLER_9_252
*1928 FILLER_9_259
*1929 FILLER_9_266
*1930 FILLER_9_273
*1931 FILLER_9_280
*1932 FILLER_9_287
*1933 FILLER_9_294
*1934 FILLER_9_301
*1935 FILLER_9_308
*1936 FILLER_9_315
*1937 FILLER_9_322
*1938 FILLER_9_329
*1939 FILLER_9_336
*1940 FILLER_9_343
*1941 FILLER_9_350
*1942 FILLER_9_357
*1943 FILLER_9_364
*1944 FILLER_9_371
*1945 FILLER_9_378
*1946 FILLER_9_385
*1947 FILLER_9_392
*1948 FILLER_9_399
*1949 FILLER_9_406
*1950 FILLER_9_413
*1951 FILLER_9_420
*1952 FILLER_9_427
*1953 FILLER_9_429
*1954 FILLER_10_0
*1955 FILLER_10_7
*1956 FILLER_10_14
*1957 FILLER_10_21
*1958 FILLER_10_28
*1959 FILLER_10_35
*1960 FILLER_10_42
*1961 FILLER_10_49
*1962 FILLER_10_56
*1963 FILLER_10_63
*1964 FILLER_10_70
*1965 FILLER_10_77
*1966 FILLER_10_84
*1967 FILLER_10_91
*1968 FILLER_10_98
*1969 FILLER_10_105
*1970 FILLER_10_112
*1971 FILLER_10_119
*1972 FILLER_10_126
*1973 FILLER_10_133
*1974 FILLER_10_140
*1975 FILLER_10_147