*SPEF "ieee 1481-1999"
*DESIGN "tt_um_kbeckmann_flame"
*DATE "23:24:19 Monday October 28, 2024"
*VENDOR "The OpenROAD Project"
*PROGRAM "OpenROAD"
*VERSION "v2.0-16649-g40811f37f"
*DESIGN_FLOW "NAME_SCOPE LOCAL" "PIN_CAP NONE"
*DIVIDER /
*DELIMITER :
*BUS_DELIMITER []
*T_UNIT 1 NS
*C_UNIT 1 PF
*R_UNIT 1 OHM
*L_UNIT 1 HENRY

*NAME_MAP
*1 LFSR\[0\]
*2 LFSR\[1\]
*3 LFSR\[2\]
*4 LFSR\[3\]
*5 LFSR\[4\]
*6 LFSR\[5\]
*7 VAL\[0\]
*8 VAL\[10\]
*9 VAL\[11\]
*10 VAL\[12\]
*11 VAL\[13\]
*12 VAL\[14\]
*13 VAL\[15\]
*14 VAL\[16\]
*15 VAL\[17\]
*16 VAL\[18\]
*17 VAL\[19\]
*18 VAL\[1\]
*19 VAL\[20\]
*20 VAL\[21\]
*21 VAL\[22\]
*22 VAL\[23\]
*23 VAL\[2\]
*24 VAL\[3\]
*25 VAL\[4\]
*26 VAL\[5\]
*27 VAL\[6\]
*28 VAL\[7\]
*29 VAL\[8\]
*30 VAL\[9\]
*31 Voice1\.accumulator\[0\]
*32 Voice1\.accumulator\[10\]
*33 Voice1\.accumulator\[11\]
*34 Voice1\.accumulator\[12\]
*35 Voice1\.accumulator\[13\]
*36 Voice1\.accumulator\[14\]
*37 Voice1\.accumulator\[15\]
*38 Voice1\.accumulator\[16\]
*39 Voice1\.accumulator\[17\]
*40 Voice1\.accumulator\[18\]
*41 Voice1\.accumulator\[19\]
*42 Voice1\.accumulator\[1\]
*43 Voice1\.accumulator\[20\]
*44 Voice1\.accumulator\[21\]
*45 Voice1\.accumulator\[22\]
*46 Voice1\.accumulator\[23\]
*47 Voice1\.accumulator\[2\]
*48 Voice1\.accumulator\[3\]
*49 Voice1\.accumulator\[4\]
*50 Voice1\.accumulator\[5\]
*51 Voice1\.accumulator\[6\]
*52 Voice1\.accumulator\[7\]
*53 Voice1\.accumulator\[8\]
*54 Voice1\.accumulator\[9\]
*55 Voice1\.en
*56 Voice1\.pulse
*57 Voice1\.pulsewidth\[0\]
*58 Voice1\.pulsewidth\[10\]
*59 Voice1\.pulsewidth\[1\]
*60 Voice1\.pulsewidth\[2\]
*61 Voice1\.pulsewidth\[3\]
*62 Voice1\.pulsewidth\[4\]
*63 Voice1\.pulsewidth\[5\]
*64 Voice1\.pulsewidth\[6\]
*65 Voice1\.pulsewidth\[7\]
*66 Voice1\.pulsewidth\[8\]
*67 _0000_
*68 _0001_
*69 _0002_
*70 _0003_
*71 _0004_
*72 _0005_
*73 _0006_
*74 _0007_
*75 _0008_
*76 _0009_
*77 _0010_
*78 _0011_
*79 _0012_
*80 _0013_
*81 _0014_
*82 _0015_
*83 _0016_
*84 _0017_
*85 _0018_
*86 _0019_
*87 _0020_
*88 _0021_
*89 _0022_
*90 _0023_
*91 _0024_
*92 _0025_
*93 _0026_
*94 _0027_
*95 _0028_
*96 _0029_
*97 _0030_
*98 _0031_
*99 _0032_
*100 _0033_
*101 _0034_
*102 _0035_
*103 _0036_
*104 _0037_
*105 _0038_
*106 _0039_
*107 _0040_
*108 _0041_
*109 _0042_
*110 _0043_
*111 _0044_
*112 _0045_
*113 _0046_
*114 _0047_
*115 _0048_
*116 _0049_
*117 _0050_
*118 _0051_
*119 _0052_
*120 _0053_
*121 _0054_
*122 _0055_
*123 _0056_
*124 _0057_
*125 _0058_
*126 _0059_
*127 _0060_
*128 _0061_
*129 _0062_
*130 _0063_
*131 _0064_
*132 _0065_
*133 _0066_
*134 _0067_
*135 _0068_
*136 _0069_
*137 _0070_
*138 _0071_
*139 _0072_
*140 _0073_
*141 _0074_
*142 _0075_
*143 _0076_
*144 _0077_
*145 _0078_
*146 _0079_
*147 _0080_
*148 _0081_
*149 _0082_
*150 _0083_
*151 _0084_
*152 _0085_
*153 _0086_
*154 _0087_
*155 _0088_
*156 _0089_
*157 _0090_
*158 _0091_
*159 _0092_
*160 _0093_
*161 _0094_
*162 _0095_
*163 _0096_
*164 _0097_
*165 _0098_
*166 _0099_
*167 _0100_
*168 _0101_
*169 _0102_
*170 _0103_
*171 _0104_
*172 _0105_
*173 _0106_
*174 _0107_
*175 _0108_
*176 _0109_
*177 _0110_
*178 _0111_
*179 _0112_
*180 _0113_
*181 _0114_
*182 _0115_
*183 _0116_
*184 _0117_
*185 _0118_
*186 _0119_
*187 _0120_
*188 _0121_
*189 _0122_
*190 _0123_
*191 _0124_
*192 _0125_
*193 _0126_
*194 _0127_
*195 _0128_
*196 _0129_
*197 _0130_
*198 _0131_
*199 _0132_
*200 _0133_
*201 _0134_
*202 _0135_
*203 _0136_
*204 _0137_
*205 _0138_
*206 _0139_
*207 _0140_
*208 _0141_
*209 _0142_
*210 _0143_
*211 _0144_
*212 _0145_
*213 _0146_
*214 _0147_
*215 _0148_
*216 _0149_
*217 _0150_
*218 _0151_
*219 _0152_
*220 _0153_
*221 _0154_
*222 _0155_
*223 _0156_
*224 _0157_
*225 _0158_
*226 _0159_
*227 _0160_
*228 _0161_
*229 _0162_
*230 _0163_
*231 _0164_
*232 _0165_
*233 _0166_
*234 _0167_
*235 _0168_
*236 _0169_
*237 _0170_
*238 _0171_
*239 _0172_
*240 _0173_
*241 _0174_
*242 _0175_
*243 _0176_
*244 _0177_
*245 _0178_
*246 _0179_
*247 _0180_
*248 _0181_
*249 _0182_
*250 _0183_
*251 _0184_
*252 _0185_
*253 _0186_
*254 _0187_
*255 _0188_
*256 _0189_
*257 _0190_
*258 _0191_
*259 _0192_
*260 _0193_
*261 _0194_
*262 _0195_
*263 _0196_
*264 _0197_
*265 _0198_
*266 _0199_
*267 _0200_
*268 _0201_
*269 _0202_
*270 _0203_
*271 _0204_
*272 _0205_
*273 _0206_
*274 _0207_
*275 _0208_
*276 _0209_
*277 _0210_
*278 _0211_
*279 _0212_
*280 _0213_
*281 _0214_
*282 _0215_
*283 _0216_
*284 _0217_
*285 _0218_
*286 _0219_
*287 _0220_
*288 _0221_
*289 _0222_
*290 _0223_
*291 _0224_
*292 _0225_
*293 _0226_
*294 _0227_
*295 _0228_
*296 _0229_
*297 _0230_
*298 _0231_
*299 _0232_
*300 _0233_
*301 _0234_
*302 _0235_
*303 _0236_
*304 _0237_
*305 _0238_
*306 _0239_
*307 _0240_
*308 _0241_
*309 _0242_
*310 _0243_
*311 _0244_
*312 _0245_
*313 _0246_
*314 _0247_
*315 _0248_
*316 _0249_
*317 _0250_
*318 _0251_
*319 _0252_
*320 _0253_
*321 _0254_
*322 _0255_
*323 _0256_
*324 _0257_
*325 _0258_
*326 _0259_
*327 _0260_
*328 _0261_
*329 _0262_
*330 _0263_
*331 _0264_
*332 _0265_
*333 _0266_
*334 _0267_
*335 _0268_
*336 _0269_
*337 _0270_
*338 _0271_
*339 _0272_
*340 _0273_
*341 _0274_
*342 _0275_
*343 _0276_
*344 _0277_
*345 _0278_
*346 _0279_
*347 _0280_
*348 _0281_
*349 _0282_
*350 _0283_
*351 _0284_
*352 _0285_
*353 _0286_
*354 _0287_
*355 _0288_
*356 _0289_
*357 _0290_
*358 _0291_
*359 _0292_
*360 _0293_
*361 _0294_
*362 _0295_
*363 _0296_
*364 _0297_
*365 _0298_
*366 _0299_
*367 _0300_
*368 _0301_
*369 _0302_
*370 _0303_
*371 _0304_
*372 _0305_
*373 _0306_
*374 _0307_
*375 _0308_
*376 _0309_
*377 _0310_
*378 _0311_
*379 _0312_
*380 _0313_
*381 _0314_
*382 _0315_
*383 _0316_
*384 _0317_
*385 _0318_
*386 _0319_
*387 _0320_
*388 _0321_
*389 _0322_
*390 _0323_
*391 _0324_
*392 _0325_
*393 _0326_
*394 _0327_
*395 _0328_
*396 _0329_
*397 _0330_
*398 _0331_
*399 _0332_
*400 _0333_
*401 _0334_
*402 _0335_
*403 _0336_
*404 _0337_
*405 _0338_
*406 _0339_
*407 _0340_
*408 _0341_
*409 _0342_
*410 _0343_
*411 _0344_
*412 _0345_
*413 _0346_
*414 _0347_
*415 _0348_
*416 _0349_
*417 _0350_
*418 _0351_
*419 _0352_
*420 _0353_
*421 _0354_
*422 _0355_
*423 _0356_
*424 _0357_
*425 _0358_
*426 _0359_
*427 _0360_
*428 _0361_
*429 _0362_
*430 _0363_
*431 _0364_
*432 _0365_
*433 _0366_
*434 _0367_
*435 _0368_
*436 _0369_
*437 _0370_
*438 _0371_
*439 _0372_
*440 _0373_
*441 _0374_
*442 _0375_
*443 _0376_
*444 _0377_
*445 _0378_
*446 _0379_
*447 _0380_
*448 _0381_
*449 _0382_
*450 _0383_
*451 _0384_
*452 _0385_
*453 _0386_
*454 _0387_
*455 _0388_
*456 _0389_
*457 _0390_
*458 _0391_
*459 _0392_
*460 _0393_
*461 _0394_
*462 _0395_
*463 _0396_
*464 _0397_
*465 _0398_
*466 _0399_
*467 _0400_
*468 _0401_
*469 _0402_
*470 _0403_
*471 _0404_
*472 _0405_
*473 _0406_
*474 _0407_
*475 _0408_
*476 _0409_
*477 _0410_
*478 _0411_
*479 _0412_
*480 _0413_
*481 _0414_
*482 _0415_
*483 _0416_
*484 _0417_
*485 _0418_
*486 _0419_
*487 _0420_
*488 _0421_
*489 _0422_
*490 _0423_
*491 _0424_
*492 _0425_
*493 _0426_
*494 _0427_
*495 _0428_
*496 _0429_
*497 _0430_
*498 _0431_
*499 _0432_
*500 _0433_
*501 _0434_
*502 _0435_
*503 _0436_
*504 _0437_
*505 _0438_
*506 _0439_
*507 _0440_
*508 _0441_
*509 _0442_
*510 _0443_
*511 _0444_
*512 _0445_
*513 _0446_
*514 _0447_
*515 _0448_
*516 _0449_
*517 _0450_
*518 _0451_
*519 _0452_
*520 _0453_
*521 _0454_
*522 _0455_
*523 _0456_
*524 _0457_
*525 _0458_
*526 _0459_
*527 _0460_
*528 _0461_
*529 _0462_
*530 _0463_
*531 _0464_
*532 _0465_
*533 _0466_
*534 _0467_
*535 _0468_
*536 _0469_
*537 _0470_
*538 _0471_
*539 _0472_
*540 _0473_
*541 _0474_
*542 _0475_
*543 _0476_
*544 _0477_
*545 _0478_
*546 _0479_
*547 _0480_
*548 _0481_
*549 _0482_
*550 _0483_
*551 _0484_
*552 _0485_
*553 _0486_
*554 _0487_
*555 _0488_
*556 _0489_
*557 _0490_
*558 _0491_
*559 _0492_
*560 _0493_
*561 _0494_
*562 _0495_
*563 _0496_
*564 _0497_
*565 _0498_
*566 _0499_
*567 _0500_
*568 _0501_
*569 _0502_
*570 _0503_
*571 _0504_
*572 _0505_
*573 _0506_
*574 _0507_
*575 _0508_
*576 _0509_
*577 _0510_
*578 _0511_
*579 _0512_
*580 _0513_
*581 _0514_
*582 _0515_
*583 _0516_
*584 _0517_
*585 _0518_
*586 _0519_
*587 _0520_
*588 _0521_
*589 _0522_
*590 _0523_
*591 _0524_
*592 _0525_
*593 _0526_
*594 _0527_
*595 _0528_
*596 _0529_
*597 _0530_
*598 _0531_
*599 _0532_
*600 _0533_
*601 _0534_
*602 _0535_
*603 _0536_
*604 _0537_
*605 _0538_
*606 _0539_
*607 _0540_
*608 _0541_
*609 _0542_
*610 _0543_
*611 _0544_
*612 _0545_
*613 _0546_
*614 _0547_
*615 _0548_
*616 _0549_
*617 _0550_
*618 _0551_
*619 _0552_
*620 _0553_
*621 _0554_
*622 _0555_
*623 _0556_
*624 _0557_
*625 _0558_
*626 _0559_
*627 _0560_
*628 _0561_
*629 _0562_
*630 _0563_
*631 _0564_
*632 _0565_
*633 _0566_
*634 _0567_
*635 _0568_
*636 _0569_
*637 _0570_
*638 _0571_
*639 _0572_
*640 _0573_
*641 _0574_
*642 _0575_
*643 _0576_
*644 _0577_
*645 _0578_
*646 _0579_
*647 _0580_
*648 _0581_
*649 _0582_
*650 _0583_
*651 _0584_
*652 _0585_
*653 _0586_
*654 _0587_
*655 _0588_
*656 _0589_
*657 _0590_
*658 _0591_
*659 _0592_
*660 _0593_
*661 _0594_
*662 _0595_
*663 _0596_
*664 _0597_
*665 _0598_
*666 _0599_
*667 _0600_
*668 _0601_
*669 _0602_
*670 _0603_
*671 _0604_
*672 _0605_
*673 _0606_
*674 _0607_
*675 _0608_
*676 _0609_
*677 _0610_
*678 _0611_
*679 _0612_
*680 _0613_
*681 _0614_
*682 _0615_
*683 _0616_
*684 _0617_
*685 _0618_
*686 _0619_
*687 _0620_
*688 _0621_
*689 _0622_
*690 _0623_
*691 _0624_
*692 _0625_
*693 _0626_
*694 _0627_
*695 _0628_
*696 _0629_
*697 _0630_
*698 _0631_
*699 _0632_
*700 _0633_
*701 _0634_
*702 _0635_
*703 _0636_
*704 _0637_
*705 _0638_
*706 _0639_
*707 _0640_
*708 _0641_
*709 _0642_
*710 _0643_
*711 _0644_
*712 _0645_
*713 _0646_
*714 _0647_
*715 _0648_
*716 _0649_
*717 _0650_
*718 _0651_
*719 _0652_
*720 _0653_
*721 _0654_
*722 _0655_
*723 _0656_
*724 _0657_
*725 _0658_
*726 _0659_
*727 _0660_
*728 _0661_
*729 _0662_
*730 _0663_
*731 _0664_
*732 _0665_
*733 _0666_
*734 _0667_
*735 _0668_
*736 _0669_
*737 _0670_
*738 _0671_
*739 _0672_
*740 _0673_
*741 _0674_
*742 _0675_
*743 _0676_
*744 _0677_
*745 _0678_
*746 _0679_
*747 _0680_
*748 _0681_
*749 _0682_
*750 _0683_
*751 _0684_
*752 _0685_
*753 _0686_
*754 _0687_
*755 _0688_
*756 _0689_
*757 _0690_
*758 _0691_
*759 _0692_
*760 _0693_
*761 _0694_
*762 _0695_
*763 _0696_
*764 _0697_
*765 _0698_
*766 _0699_
*767 _0700_
*768 _0701_
*769 _0702_
*770 _0703_
*771 _0704_
*772 _0705_
*773 _0706_
*774 _0707_
*775 _0708_
*776 _0709_
*777 _0710_
*778 _0711_
*779 _0712_
*780 _0713_
*781 _0714_
*782 _0715_
*783 _0716_
*784 _0717_
*785 _0718_
*786 _0719_
*787 _0720_
*788 _0721_
*789 _0722_
*790 _0723_
*791 _0724_
*792 _0725_
*793 _0726_
*794 _0727_
*795 _0728_
*796 _0729_
*797 _0730_
*798 _0731_
*799 _0732_
*800 _0733_
*801 _0734_
*802 _0735_
*803 _0736_
*804 _0737_
*805 _0738_
*806 _0739_
*807 _0740_
*808 _0741_
*809 _0742_
*810 _0743_
*811 _0744_
*812 _0745_
*813 _0746_
*814 _0747_
*815 _0748_
*816 _0749_
*817 _0750_
*818 _0751_
*819 _0752_
*820 _0753_
*821 _0754_
*822 _0755_
*823 _0756_
*824 _0757_
*825 _0758_
*826 _0759_
*827 _0760_
*828 _0761_
*829 _0762_
*830 _0763_
*831 _0764_
*832 _0765_
*833 _0766_
*834 _0767_
*835 _0768_
*836 _0769_
*837 _0770_
*838 _0771_
*839 _0772_
*840 _0773_
*841 _0774_
*842 _0775_
*843 _0776_
*844 _0777_
*845 _0778_
*846 _0779_
*847 _0780_
*848 _0781_
*849 _0782_
*850 _0783_
*851 _0784_
*852 _0785_
*853 _0786_
*854 _0787_
*855 _0788_
*856 _0789_
*857 _0790_
*858 _0791_
*859 _0792_
*860 _0793_
*861 _0794_
*862 _0795_
*863 _0796_
*864 _0797_
*865 _0798_
*866 _0799_
*867 _0800_
*868 _0801_
*869 _0802_
*870 _0803_
*871 _0804_
*872 _0805_
*873 _0806_
*874 _0807_
*875 _0808_
*876 _0809_
*877 _0810_
*878 _0811_
*879 _0812_
*880 _0813_
*881 _0814_
*882 _0815_
*883 _0816_
*884 _0817_
*885 _0818_
*886 _0819_
*887 _0820_
*888 _0821_
*889 _0822_
*890 _0823_
*891 _0824_
*892 _0825_
*893 _0826_
*894 _0827_
*895 _0828_
*896 _0829_
*897 _0830_
*898 _0831_
*899 _0832_
*900 _0833_
*901 _0834_
*902 _0835_
*903 _0836_
*904 _0837_
*905 _0838_
*906 _0839_
*907 _0840_
*908 _0841_
*909 _0842_
*910 _0843_
*911 _0844_
*912 _0845_
*913 _0846_
*914 _0847_
*915 _0848_
*916 _0849_
*917 _0850_
*918 _0851_
*919 _0852_
*920 _0853_
*921 _0854_
*922 _0855_
*923 _0856_
*924 _0857_
*925 _0858_
*926 _0859_
*927 _0860_
*928 _0861_
*929 _0862_
*930 _0863_
*931 _0864_
*932 _0865_
*933 _0866_
*934 _0867_
*935 _0868_
*936 _0869_
*937 _0870_
*938 _0871_
*939 _0872_
*940 _0873_
*941 _0874_
*942 _0875_
*943 _0876_
*944 _0877_
*945 _0878_
*946 _0879_
*947 _0880_
*948 _0881_
*949 _0882_
*950 _0883_
*951 _0884_
*952 _0885_
*953 _0886_
*954 _0887_
*955 _0888_
*956 _0889_
*957 _0890_
*958 _0891_
*959 _0892_
*960 _0893_
*961 _0894_
*962 _0895_
*963 _0896_
*964 _0897_
*965 _0898_
*966 _0899_
*967 _0900_
*968 _0901_
*969 _0902_
*970 _0903_
*971 _0904_
*972 _0905_
*973 _0906_
*974 _0907_
*975 _0908_
*976 _0909_
*977 _0910_
*978 _0911_
*979 _0912_
*980 _0913_
*981 _0914_
*982 _0915_
*983 _0916_
*984 _0917_
*985 _0918_
*986 _0919_
*987 _0920_
*988 _0921_
*989 _0922_
*990 _0923_
*991 _0924_
*992 _0925_
*993 _0926_
*994 _0927_
*995 _0928_
*996 _0929_
*997 _0930_
*998 _0931_
*999 _0932_
*1000 _0933_
*1001 _0934_
*1002 _0935_
*1003 _0936_
*1004 _0937_
*1005 _0938_
*1006 _0939_
*1007 _0940_
*1008 _0941_
*1009 _0942_
*1010 _0943_
*1011 _0944_
*1012 _0945_
*1013 _0946_
*1014 _0947_
*1015 _0948_
*1016 _0949_
*1017 _0950_
*1018 _0951_
*1019 _0952_
*1020 _0953_
*1021 _0954_
*1022 _0955_
*1023 _0956_
*1024 _0957_
*1025 _0958_
*1026 _0959_
*1027 _0960_
*1028 _0961_
*1029 _0962_
*1030 _0963_
*1031 _0964_
*1032 _0965_
*1033 _0966_
*1034 _0967_
*1035 _0968_
*1036 _0969_
*1037 _0970_
*1038 _0971_
*1039 _0972_
*1040 _0973_
*1041 _0974_
*1042 _0975_
*1043 _0976_
*1044 _0977_
*1045 _0978_
*1046 _0979_
*1047 _0980_
*1048 _0981_
*1049 _0982_
*1050 _0983_
*1051 _0984_
*1052 _0985_
*1053 _0986_
*1054 _0987_
*1055 _0988_
*1056 _0989_
*1057 _0990_
*1058 _0991_
*1059 _0992_
*1060 _0993_
*1061 _0994_
*1062 _0995_
*1063 _0996_
*1064 _0997_
*1065 _0998_
*1066 _0999_
*1067 _1000_
*1068 _1001_
*1069 _1002_
*1070 _1003_
*1071 _1004_
*1072 _1005_
*1073 _1006_
*1074 _1007_
*1075 _1008_
*1076 _1009_
*1077 _1010_
*1078 _1011_
*1079 _1012_
*1080 _1013_
*1081 _1014_
*1082 _1015_
*1083 _1016_
*1084 _1017_
*1085 _1018_
*1086 _1019_
*1087 _1020_
*1088 _1021_
*1089 _1022_
*1090 _1023_
*1091 _1024_
*1092 _1025_
*1093 _1026_
*1094 _1027_
*1095 _1028_
*1096 _1029_
*1097 _1030_
*1098 _1031_
*1099 _1032_
*1100 _1033_
*1101 _1034_
*1102 _1035_
*1103 _1036_
*1104 _1037_
*1105 _1038_
*1106 _1039_
*1107 _1040_
*1108 _1041_
*1109 _1042_
*1110 _1043_
*1111 _1044_
*1112 _1045_
*1113 _1046_
*1114 _1047_
*1115 _1048_
*1116 _1049_
*1117 _1050_
*1118 _1051_
*1119 _1052_
*1120 _1053_
*1121 _1054_
*1122 _1055_
*1123 _1056_
*1124 _1057_
*1125 _1058_
*1126 _1059_
*1127 _1060_
*1128 _1061_
*1129 _1062_
*1130 _1063_
*1131 _1064_
*1132 _1065_
*1133 _1066_
*1134 _1067_
*1135 _1068_
*1136 _1069_
*1137 _1070_
*1138 _1071_
*1139 _1072_
*1140 _1073_
*1141 _1074_
*1142 _1075_
*1143 _1076_
*1144 _1077_
*1145 _1078_
*1146 _1079_
*1147 _1080_
*1148 _1081_
*1149 _1082_
*1150 _1083_
*1151 _1084_
*1152 _1085_
*1153 _1086_
*1154 _1087_
*1155 _1088_
*1156 _1089_
*1157 _1090_
*1158 _1091_
*1159 _1092_
*1160 _1093_
*1161 _1094_
*1162 _1095_
*1163 _1096_
*1164 _1097_
*1165 _1098_
*1166 _1099_
*1167 _1100_
*1168 _1101_
*1169 _1102_
*1170 _1103_
*1171 _1104_
*1172 _1105_
*1173 _1106_
*1174 _1107_
*1175 _1108_
*1176 _1109_
*1177 _1110_
*1178 _1111_
*1179 _1112_
*1180 _1113_
*1181 _1114_
*1182 _1115_
*1183 _1116_
*1184 _1117_
*1185 _1118_
*1186 _1119_
*1187 _1120_
*1188 _1121_
*1189 _1122_
*1190 _1123_
*1191 _1124_
*1192 _1125_
*1193 _1126_
*1194 _1127_
*1195 _1128_
*1196 _1129_
*1197 _1130_
*1198 _1131_
*1199 _1132_
*1200 _1133_
*1201 _1134_
*1202 _1135_
*1203 _1136_
*1204 _1137_
*1205 _1138_
*1206 _1139_
*1207 _1140_
*1208 _1141_
*1209 _1142_
*1210 _1143_
*1211 _1144_
*1212 _1145_
*1213 _1146_
*1214 _1147_
*1215 _1148_
*1216 _1149_
*1217 _1150_
*1218 _1151_
*1219 _1152_
*1220 _1153_
*1221 _1154_
*1222 _1155_
*1223 _1156_
*1224 _1157_
*1225 _1158_
*1226 _1159_
*1227 _1160_
*1228 _1161_
*1229 _1162_
*1230 _1163_
*1231 _1164_
*1232 _1165_
*1233 _1166_
*1234 _1167_
*1235 _1168_
*1236 _1169_
*1237 _1170_
*1238 _1171_
*1239 _1172_
*1240 _1173_
*1241 _1174_
*1242 _1175_
*1243 _1176_
*1244 _1177_
*1245 _1178_
*1246 _1179_
*1247 _1180_
*1248 _1181_
*1249 _1182_
*1250 _1183_
*1251 _1184_
*1252 _1185_
*1253 _1186_
*1254 _1187_
*1255 _1188_
*1256 _1189_
*1257 _1190_
*1258 _1191_
*1259 _1192_
*1260 _1193_
*1261 _1194_
*1262 _1195_
*1263 _1196_
*1264 _1197_
*1265 _1198_
*1266 _1199_
*1267 _1200_
*1268 _1201_
*1269 _1202_
*1270 _1203_
*1271 _1204_
*1272 _1205_
*1273 _1206_
*1274 _1207_
*1275 _1208_
*1276 _1209_
*1277 _1210_
*1278 _1211_
*1279 _1212_
*1280 _1213_
*1281 _1214_
*1282 _1215_
*1283 _1216_
*1284 _1217_
*1285 _1218_
*1286 _1219_
*1287 _1220_
*1288 _1221_
*1289 _1222_
*1290 _1223_
*1291 _1224_
*1292 _1225_
*1293 _1226_
*1294 _1227_
*1295 _1228_
*1296 _1229_
*1297 _1230_
*1298 _1231_
*1299 _1232_
*1300 _1233_
*1301 _1234_
*1302 _1235_
*1303 _1236_
*1304 _1237_
*1305 _1238_
*1306 _1239_
*1307 _1240_
*1308 _1241_
*1309 _1242_
*1310 _1243_
*1311 _1244_
*1312 _1245_
*1313 _1246_
*1314 _1247_
*1315 _1248_
*1316 _1249_
*1317 _1250_
*1318 _1251_
*1319 _1252_
*1320 _1253_
*1321 _1254_
*1322 _1255_
*1323 _1256_
*1324 _1257_
*1325 _1258_
*1326 _1259_
*1327 _1260_
*1328 _1261_
*1329 _1262_
*1330 _1263_
*1331 _1264_
*1332 _1265_
*1333 _1266_
*1334 _1267_
*1335 _1268_
*1336 _1269_
*1337 _1270_
*1338 _1271_
*1339 _1272_
*1340 _1273_
*1341 _1274_
*1342 _1275_
*1343 _1276_
*1344 _1277_
*1345 _1278_
*1346 _1279_
*1347 _1280_
*1348 _1281_
*1349 _1282_
*1350 _1283_
*1351 _1284_
*1352 _1285_
*1353 _1286_
*1354 _1287_
*1355 _1288_
*1356 _1289_
*1357 _1290_
*1358 _1291_
*1359 _1292_
*1360 _1293_
*1361 _1294_
*1362 _1295_
*1363 _1296_
*1364 _1297_
*1365 _1298_
*1366 _1299_
*1367 _1300_
*1368 _1301_
*1369 _1302_
*1370 _1303_
*1371 _1304_
*1372 _1305_
*1373 _1306_
*1374 _1307_
*1375 _1308_
*1376 _1309_
*1377 _1310_
*1378 _1311_
*1379 _1312_
*1380 _1313_
*1381 _1314_
*1382 _1315_
*1383 _1316_
*1384 _1317_
*1385 _1318_
*1386 _1319_
*1387 _1320_
*1388 _1321_
*1389 _1322_
*1390 _1323_
*1391 _1324_
*1392 _1325_
*1393 _1326_
*1394 _1327_
*1395 _1328_
*1396 _1329_
*1397 _1330_
*1398 _1331_
*1399 _1332_
*1400 _1333_
*1401 _1334_
*1402 _1335_
*1403 _1336_
*1404 _1337_
*1405 _1338_
*1406 _1339_
*1407 _1340_
*1408 _1341_
*1409 _1342_
*1410 _1343_
*1411 _1344_
*1412 _1345_
*1413 _1346_
*1414 _1347_
*1415 _1348_
*1416 _1349_
*1417 _1350_
*1418 _1351_
*1419 _1352_
*1420 _1353_
*1421 _1354_
*1422 _1355_
*1423 _1356_
*1424 _1357_
*1425 _1358_
*1426 _1359_
*1427 _1360_
*1428 _1361_
*1429 _1362_
*1430 _1363_
*1431 _1364_
*1432 _1365_
*1433 _1366_
*1434 _1367_
*1435 _1368_
*1436 _1369_
*1437 _1370_
*1438 _1371_
*1439 _1372_
*1440 _1373_
*1441 _1374_
*1442 _1375_
*1443 _1376_
*1444 _1377_
*1445 _1378_
*1446 _1379_
*1447 _1380_
*1448 _1381_
*1449 _1382_
*1450 _1383_
*1451 _1384_
*1452 _1385_
*1453 _1386_
*1454 _1387_
*1455 _1388_
*1456 _1389_
*1457 _1390_
*1458 _1391_
*1459 _1392_
*1460 _1393_
*1461 _1394_
*1462 _1395_
*1463 _1396_
*1464 _1397_
*1465 _1398_
*1466 _1399_
*1467 _1400_
*1468 _1401_
*1469 _1402_
*1470 _1403_
*1471 _1404_
*1472 _1405_
*1473 _1406_
*1474 _1407_
*1475 _1408_
*1476 _1409_
*1477 _1410_
*1478 _1411_
*1479 _1412_
*1480 _1413_
*1481 _1414_
*1482 _1415_
*1483 _1416_
*1484 _1417_
*1485 _1418_
*1486 _1419_
*1487 _1420_
*1488 _1421_
*1489 _1422_
*1490 _1423_
*1491 _1424_
*1492 _1425_
*1493 _1426_
*1494 _1427_
*1495 _1428_
*1496 _1429_
*1497 _1430_
*1498 _1431_
*1499 _1432_
*1500 _1433_
*1501 _1434_
*1502 _1435_
*1503 _1436_
*1504 _1437_
*1505 _1438_
*1506 _1439_
*1507 _1440_
*1508 _1441_
*1509 _1442_
*1510 _1443_
*1511 _1444_
*1512 _1445_
*1513 _1446_
*1514 _1447_
*1515 _1448_
*1516 _1449_
*1517 _1450_
*1518 _1451_
*1519 _1452_
*1520 _1453_
*1521 _1454_
*1522 _1455_
*1523 _1456_
*1524 _1457_
*1525 _1458_
*1526 _1459_
*1527 _1460_
*1528 _1461_
*1529 _1462_
*1530 _1463_
*1531 _1464_
*1532 _1465_
*1533 _1466_
*1534 _1467_
*1535 _1468_
*1536 _1469_
*1537 _1470_
*1538 _1471_
*1539 _1472_
*1540 _1473_
*1541 _1474_
*1542 _1475_
*1543 _1476_
*1544 _1477_
*1545 _1478_
*1546 _1479_
*1547 _1480_
*1548 _1481_
*1549 _1482_
*1550 _1483_
*1551 _1484_
*1552 _1485_
*1553 _1486_
*1554 _1487_
*1555 _1488_
*1556 _1489_
*1557 _1490_
*1558 _1491_
*1559 _1492_
*1560 _1493_
*1561 _1494_
*1562 _1495_
*1563 _1496_
*1564 _1497_
*1565 _1498_
*1566 _1499_
*1567 _1500_
*1568 _1501_
*1569 _1502_
*1570 _1503_
*1571 _1504_
*1572 _1505_
*1573 _1506_
*1574 _1507_
*1575 _1508_
*1576 _1509_
*1577 _1510_
*1578 _1511_
*1579 _1512_
*1580 _1513_
*1581 _1514_
*1582 _1515_
*1583 _1516_
*1584 _1517_
*1585 _1518_
*1586 _1519_
*1587 _1520_
*1588 _1521_
*1589 _1522_
*1590 _1523_
*1591 _1524_
*1592 _1525_
*1593 _1526_
*1594 _1527_
*1595 _1528_
*1596 _1529_
*1597 _1530_
*1598 _1531_
*1599 _1532_
*1600 _1533_
*1601 _1534_
*1602 _1535_
*1603 _1536_
*1604 _1537_
*1605 _1538_
*1606 _1539_
*1607 _1540_
*1608 _1541_
*1609 _1542_
*1610 _1543_
*1611 _1544_
*1612 _1545_
*1613 _1546_
*1614 _1547_
*1615 _1548_
*1616 _1549_
*1617 _1550_
*1618 _1551_
*1619 _1552_
*1620 _1553_
*1621 _1554_
*1622 _1555_
*1623 _1556_
*1624 _1557_
*1625 _1558_
*1626 _1559_
*1627 _1560_
*1628 _1561_
*1629 _1562_
*1630 _1563_
*1631 _1564_
*1632 _1565_
*1633 _1566_
*1634 _1567_
*1635 _1568_
*1636 _1569_
*1637 _1570_
*1638 _1571_
*1639 _1572_
*1640 _1573_
*1641 _1574_
*1642 _1575_
*1643 _1576_
*1644 _1577_
*1645 _1578_
*1646 _1579_
*1647 _1580_
*1648 _1581_
*1649 _1582_
*1650 _1583_
*1651 _1584_
*1652 _1585_
*1653 _1586_
*1654 _1587_
*1655 _1588_
*1656 _1589_
*1657 _1590_
*1658 _1591_
*1659 _1592_
*1660 _1593_
*1661 _1594_
*1662 _1595_
*1663 _1596_
*1664 _1597_
*1665 _1598_
*1666 _1599_
*1667 _1600_
*1668 _1601_
*1669 _1602_
*1670 _1603_
*1671 _1604_
*1672 _1605_
*1673 _1606_
*1674 _1607_
*1675 _1608_
*1676 _1609_
*1677 _1610_
*1678 _1611_
*1679 _1612_
*1680 _1613_
*1681 _1614_
*1682 _1615_
*1683 _1616_
*1684 _1617_
*1685 _1618_
*1686 _1619_
*1687 _1620_
*1688 _1621_
*1689 _1622_
*1690 _1623_
*1691 _1624_
*1692 _1625_
*1693 _1626_
*1694 _1627_
*1695 _1628_
*1696 _1629_
*1697 _1630_
*1698 _1631_
*1699 _1632_
*1700 _1633_
*1701 _1634_
*1702 _1635_
*1703 _1636_
*1704 _1637_
*1705 _1638_
*1706 _1639_
*1707 _1640_
*1708 clknet_0_clk
*1709 net90
*1710 clk
*1711 counter\[0\]
*1712 counter\[1\]
*1713 counter\[2\]
*1714 counter\[3\]
*1715 counter\[4\]
*1716 counter\[5\]
*1717 counter\[6\]
*1718 counter\[7\]
*1719 counter\[8\]
*1720 ctr_audio\[0\]
*1721 ctr_audio\[19\]
*1722 ctr_audio\[1\]
*1723 ctr_audio\[20\]
*1724 ctr_audio\[21\]
*1725 ctr_audio\[22\]
*1726 ctr_audio\[2\]
*1727 ctr_audio\[3\]
*1728 ctr_audio\[4\]
*1729 ctr_audio\[5\]
*1730 ctr_audio\[6\]
*1731 ctr_audio\[7\]
*1732 ctr_audio\[8\]
*1733 ctr_audio\[9\]
*1734 ctr_clkdiv25\[0\]
*1735 ctr_clkdiv25\[1\]
*1736 ctr_clkdiv25\[2\]
*1737 ctr_clkdiv25\[3\]
*1738 ctr_clkdiv25\[4\]
*1739 ctr_clkdiv25\[5\]
*1740 ctr_clkdiv25\[6\]
*1741 ctr_clkdiv25\[7\]
*1742 ena
*1743 hsync
*1744 hvsync_gen\.hpos\[0\]
*1745 hvsync_gen\.hpos\[1\]
*1746 hvsync_gen\.hpos\[2\]
*1747 hvsync_gen\.hpos\[3\]
*1748 hvsync_gen\.hpos\[4\]
*1749 hvsync_gen\.hpos\[5\]
*1750 hvsync_gen\.hpos\[6\]
*1751 hvsync_gen\.hpos\[7\]
*1752 hvsync_gen\.hpos\[8\]
*1753 hvsync_gen\.hpos\[9\]
*1754 hvsync_gen\.vpos\[0\]
*1755 hvsync_gen\.vpos\[1\]
*1756 hvsync_gen\.vpos\[2\]
*1757 hvsync_gen\.vpos\[3\]
*1758 hvsync_gen\.vpos\[4\]
*1759 hvsync_gen\.vpos\[5\]
*1760 hvsync_gen\.vpos\[6\]
*1761 hvsync_gen\.vpos\[7\]
*1762 hvsync_gen\.vpos\[8\]
*1763 hvsync_gen\.vpos\[9\]
*1764 hvsync_gen\.vsync
*1765 rst_n
*1766 ui_in[0]
*1767 ui_in[1]
*1768 ui_in[2]
*1769 ui_in[3]
*1770 ui_in[4]
*1771 ui_in[5]
*1772 ui_in[6]
*1773 ui_in[7]
*1774 uio_in[0]
*1775 uio_in[1]
*1776 uio_in[2]
*1777 uio_in[3]
*1778 uio_in[4]
*1779 uio_in[5]
*1780 uio_in[6]
*1781 uio_in[7]
*1782 uio_oe[0]
*1783 uio_oe[1]
*1784 uio_oe[2]
*1785 uio_oe[3]
*1786 uio_oe[4]
*1787 uio_oe[5]
*1788 uio_oe[6]
*1789 uio_oe[7]
*1790 uio_out[0]
*1791 uio_out[1]
*1792 uio_out[2]
*1793 uio_out[3]
*1794 uio_out[4]
*1795 uio_out[5]
*1796 uio_out[6]
*1797 uio_out[7]
*1798 uo_out[0]
*1799 uo_out[1]
*1800 uo_out[2]
*1801 uo_out[3]
*1802 uo_out[4]
*1803 uo_out[5]
*1804 uo_out[6]
*1805 uo_out[7]
*1806 xq\[0\]
*1807 xq\[10\]
*1808 xq\[11\]
*1809 xq\[1\]
*1810 xq\[2\]
*1811 xq\[3\]
*1812 xq\[4\]
*1813 xq\[5\]
*1814 xq\[6\]
*1815 xq\[7\]
*1816 xq\[8\]
*1817 xq\[9\]
*1818 xqo\[0\]
*1819 xqo\[10\]
*1820 xqo\[11\]
*1821 xqo\[1\]
*1822 xqo\[2\]
*1823 xqo\[3\]
*1824 xqo\[4\]
*1825 xqo\[5\]
*1826 xqo\[6\]
*1827 xqo\[7\]
*1828 xqo\[8\]
*1829 xqo\[9\]
*1830 yq\[0\]
*1831 yq\[10\]
*1832 yq\[11\]
*1833 yq\[12\]
*1834 yq\[1\]
*1835 yq\[2\]
*1836 yq\[3\]
*1837 yq\[4\]
*1838 yq\[5\]
*1839 yq\[6\]
*1840 yq\[7\]
*1841 yq\[8\]
*1842 yq\[9\]
*1843 yqo\[0\]
*1844 yqo\[10\]
*1845 yqo\[11\]
*1846 yqo\[12\]
*1847 yqo\[1\]
*1848 yqo\[2\]
*1849 yqo\[3\]
*1850 yqo\[4\]
*1851 yqo\[5\]
*1852 yqo\[6\]
*1853 yqo\[7\]
*1854 yqo\[8\]
*1855 yqo\[9\]
*1858 net1
*1859 net2
*1860 net3
*1861 net4
*1862 net5
*1863 net6
*1864 net7
*1865 net8
*1866 net9
*1867 net10
*1868 net11
*1869 net12
*1870 net13
*1871 net14
*1872 net15
*1873 net16
*1874 net17
*1875 net18
*1876 net19
*1877 net20
*1878 net21
*1879 net22
*1880 net23
*1881 net24
*1882 net25
*1883 net26
*1884 net27
*1885 net28
*1886 net29
*1887 net30
*1888 net31
*1889 net32
*1890 net33
*1891 net34
*1892 net35
*1893 net36
*1894 net37
*1895 net38
*1896 net39
*1897 net40
*1898 net41
*1899 net42
*1900 net43
*1901 net44
*1902 net45
*1903 net46
*1904 net47
*1905 net48
*1906 net49
*1907 net50
*1908 net51
*1909 net52
*1910 net53
*1911 net54
*1912 net55
*1913 net56
*1914 net57
*1915 net58
*1916 net59
*1917 net60
*1918 net61
*1919 net62
*1920 net63
*1921 net64
*1922 net65
*1923 net66
*1924 net67
*1925 net68
*1926 net69
*1927 net70
*1928 net71
*1929 net72
*1930 net73
*1931 net74
*1932 net75
*1933 net76
*1934 net77
*1935 net78
*1936 net79
*1937 net80
*1938 net81
*1939 net82
*1940 net83
*1941 net84
*1942 net85
*1943 net86
*1944 net87
*1945 net88
*1946 net89
*1947 net91
*1948 net92
*1949 net93
*1950 net94
*1951 net95
*1952 net96
*1953 net97
*1954 net98
*1955 net99
*1956 net100
*1957 net101
*1958 net102
*1959 net103
*1960 net104
*1961 net105
*1962 net106
*1963 net107
*1964 net108
*1965 net109
*1966 net110
*1967 net111
*1968 net112
*1969 net113
*1970 net114
*1971 net115
*1972 net116
*1973 net117
*1974 net118
*1975 net119
*1976 net120
*1977 net121
*1978 net122
*1979 net123
*1980 net124
*1981 net125
*1982 net126
*1983 net127
*1984 net128
*1985 net129
*1986 net130
*1987 net131
*1988 net132
*1989 net133
*1990 net134
*1991 net135
*1992 net136
*1993 net137
*1994 net138
*1995 net139
*1996 net140
*1997 net141
*1998 net142
*1999 net143
*2000 net144
*2001 net145
*2002 net146
*2003 net147
*2004 net148
*2005 net149
*2006 net150
*2007 net151
*2008 net152
*2009 net153
*2010 net154
*2011 net155
*2012 net156
*2013 net157
*2014 net158
*2015 net159
*2016 net160
*2017 net161
*2018 net162
*2019 net163
*2020 net164
*2021 net165
*2022 net166
*2023 net167
*2024 net168
*2025 net169
*2026 net170
*2027 net171
*2028 net172
*2029 net173
*2030 net174
*2031 net175
*2032 net176
*2033 net177
*2034 net178
*2035 net179
*2036 net180
*2037 net181
*2038 net182
*2039 net183
*2040 net184
*2041 net185
*2042 net186
*2043 net187
*2044 net188
*2045 net189
*2046 net190
*2047 net191
*2048 net192
*2049 net193
*2050 net194
*2051 net195
*2052 net196
*2053 net197
*2054 net198
*2055 net199
*2056 net200
*2057 net201
*2058 net202
*2059 net203
*2060 net204
*2061 net205
*2062 net206
*2063 net207
*2064 net208
*2065 net209
*2066 net210
*2067 net211
*2068 net212
*2069 net213
*2070 net214
*2071 net215
*2072 net216
*2073 net217
*2074 net218
*2075 net219
*2076 net220
*2077 net221
*2078 net222
*2079 net223
*2080 net224
*2081 net225
*2082 net226
*2083 net227
*2084 net228
*2085 net229
*2086 net230
*2087 net231
*2088 net232
*2089 net233
*2090 net234
*2091 net235
*2092 net236
*2093 net237
*2094 net238
*2095 net239
*2096 net240
*2097 net241
*2098 net242
*2099 net243
*2100 net244
*2101 net245
*2102 net246
*2103 net247
*2104 net248
*2105 net249
*2106 net250
*2107 net251
*2108 net252
*2109 net253
*2110 net254
*2111 net255
*2112 net256
*2113 net257
*2114 net258
*2115 net259
*2116 clknet_4_0_0_clk
*2117 clknet_4_1_0_clk
*2118 clknet_4_2_0_clk
*2119 clknet_4_3_0_clk
*2120 clknet_4_4_0_clk
*2121 clknet_4_5_0_clk
*2122 clknet_4_6_0_clk
*2123 clknet_4_7_0_clk
*2124 clknet_4_8_0_clk
*2125 clknet_4_9_0_clk
*2126 clknet_4_10_0_clk
*2127 clknet_4_11_0_clk
*2128 clknet_4_12_0_clk
*2129 clknet_4_13_0_clk
*2130 clknet_4_14_0_clk
*2131 clknet_4_15_0_clk
*2132 clknet_5_0__leaf_clk
*2133 clknet_5_1__leaf_clk
*2134 clknet_5_2__leaf_clk
*2135 clknet_5_3__leaf_clk
*2136 clknet_5_4__leaf_clk
*2137 clknet_5_5__leaf_clk
*2138 clknet_5_6__leaf_clk
*2139 clknet_5_7__leaf_clk
*2140 clknet_5_8__leaf_clk
*2141 clknet_5_9__leaf_clk
*2142 clknet_5_10__leaf_clk
*2143 clknet_5_11__leaf_clk
*2144 clknet_5_12__leaf_clk
*2145 clknet_5_13__leaf_clk
*2146 clknet_5_14__leaf_clk
*2147 clknet_5_15__leaf_clk
*2148 clknet_5_16__leaf_clk
*2149 clknet_5_17__leaf_clk
*2150 clknet_5_18__leaf_clk
*2151 clknet_5_19__leaf_clk
*2152 clknet_5_20__leaf_clk
*2153 clknet_5_21__leaf_clk
*2154 clknet_5_22__leaf_clk
*2155 clknet_5_23__leaf_clk
*2156 clknet_5_24__leaf_clk
*2157 clknet_5_25__leaf_clk
*2158 clknet_5_26__leaf_clk
*2159 clknet_5_27__leaf_clk
*2160 clknet_5_28__leaf_clk
*2161 clknet_5_29__leaf_clk
*2162 clknet_5_30__leaf_clk
*2163 clknet_5_31__leaf_clk
*2164 LFSR\[0\]\$_SDFF_PP1_
*2165 LFSR\[1\]\$_SDFF_PP0_
*2166 LFSR\[2\]\$_SDFF_PP0_
*2167 LFSR\[3\]\$_SDFF_PP0_
*2168 LFSR\[4\]\$_SDFF_PP0_
*2169 LFSR\[5\]\$_SDFF_PP0_
*2170 Voice1\.accumulator\[0\]\$_DFFE_PP_
*2171 Voice1\.accumulator\[10\]\$_DFFE_PP_
*2172 Voice1\.accumulator\[11\]\$_DFFE_PP_
*2173 Voice1\.accumulator\[12\]\$_DFFE_PP_
*2174 Voice1\.accumulator\[13\]\$_DFFE_PP_
*2175 Voice1\.accumulator\[14\]\$_DFFE_PP_
*2176 Voice1\.accumulator\[15\]\$_DFFE_PP_
*2177 Voice1\.accumulator\[16\]\$_DFFE_PP_
*2178 Voice1\.accumulator\[17\]\$_DFFE_PP_
*2179 Voice1\.accumulator\[18\]\$_DFFE_PP_
*2180 Voice1\.accumulator\[19\]\$_DFFE_PP_