*SPEF "ieee 1481-1999"
*DESIGN "tt_um_frequency_counter"
*DATE "14:18:37 Friday October 25, 2024"
*VENDOR "The OpenROAD Project"
*PROGRAM "OpenROAD"
*VERSION "v2.0-16649-g40811f37f"
*DESIGN_FLOW "NAME_SCOPE LOCAL" "PIN_CAP NONE"
*DIVIDER /
*DELIMITER :
*BUS_DELIMITER []
*T_UNIT 1 NS
*C_UNIT 1 PF
*R_UNIT 1 OHM
*L_UNIT 1 HENRY

*NAME_MAP
*1 _000_
*2 _001_
*3 _002_
*4 _003_
*5 _004_
*6 _005_
*7 _006_
*8 _007_
*9 _008_
*10 _009_
*11 _010_
*12 _011_
*13 _012_
*14 _013_
*15 _014_
*16 _015_
*17 _016_
*18 _017_
*19 _018_
*20 _019_
*21 _020_
*22 _021_
*23 _022_
*24 _023_
*25 _024_
*26 _025_
*27 _026_
*28 _027_
*29 _028_
*30 _029_
*31 _030_
*32 _031_
*33 _032_
*34 _033_
*35 _034_
*36 _035_
*37 _036_
*38 _037_
*39 _038_
*40 _039_
*41 _040_
*42 _041_
*43 _042_
*44 _043_
*45 _044_
*46 _045_
*47 _046_
*48 _047_
*49 _048_
*50 _049_
*51 _050_
*52 _051_
*53 _052_
*54 _053_
*55 _054_
*56 _055_
*57 _056_
*58 _057_
*59 _058_
*60 _059_
*61 _060_
*62 _061_
*63 _062_
*64 _063_
*65 _064_
*66 _065_
*67 _066_
*68 _067_
*69 _068_
*70 _069_
*71 _070_
*72 _071_
*73 _072_
*74 _073_
*75 _074_
*76 _075_
*77 _076_
*78 _077_
*79 _078_
*80 _079_
*81 _080_
*82 _081_
*83 _082_
*84 _083_
*85 _084_
*86 _085_
*87 _086_
*88 _087_
*89 _088_
*90 _089_
*91 _090_
*92 _091_
*93 _092_
*94 _093_
*95 _094_
*96 _095_
*97 _096_
*98 _097_
*99 _098_
*100 _099_
*101 _100_
*102 _101_
*103 _102_
*104 _103_
*105 _104_
*106 _105_
*107 _106_
*108 _107_
*109 _108_
*110 _109_
*111 _110_
*112 _111_
*113 _112_
*114 _113_
*115 _114_
*116 _115_
*117 _116_
*118 _117_
*119 _118_
*120 _119_
*121 _120_
*122 _121_
*123 _122_
*124 _123_
*125 _124_
*126 _125_
*127 _126_
*128 _127_
*129 _128_
*130 _129_
*131 _130_
*132 _131_
*133 _132_
*134 _133_
*135 _134_
*136 _135_
*137 _136_
*138 _137_
*139 _138_
*140 _139_
*141 _140_
*142 _141_
*143 _142_
*144 _143_
*145 _144_
*146 _145_
*147 _146_
*148 _147_
*149 _148_
*150 _149_
*151 _150_
*152 _151_
*153 _152_
*154 _153_
*155 _154_
*156 _155_
*157 _156_
*158 _157_
*159 _158_
*160 _159_
*161 _160_
*162 _161_
*163 _162_
*164 _163_
*165 _164_
*166 _165_
*167 _166_
*168 _167_
*169 _168_
*170 _169_
*171 _170_
*172 _171_
*173 _172_
*174 _173_
*175 _174_
*176 _175_
*177 _176_
*178 _177_
*179 _178_
*180 _179_
*181 _180_
*182 _181_
*183 _182_
*184 _183_
*185 _184_
*186 _185_
*187 _186_
*188 _187_
*189 _188_
*190 _189_
*191 _190_
*192 _191_
*193 _192_
*194 _193_
*195 _194_
*196 _195_
*197 _196_
*198 _197_
*199 _198_
*200 _199_
*201 _200_
*202 _201_
*203 _202_
*204 _203_
*205 _204_
*206 _205_
*207 _206_
*208 _207_
*209 _208_
*210 _209_
*211 _210_
*212 _211_
*213 _212_
*214 _213_
*215 _214_
*216 _215_
*217 _216_
*218 _217_
*219 _218_
*220 _219_
*221 _220_
*222 _221_
*223 _222_
*224 _223_
*225 _224_
*226 _225_
*227 _226_
*228 _227_
*229 _228_
*230 _229_
*231 _230_
*232 _231_
*233 _232_
*234 _233_
*235 _234_
*236 _235_
*237 _236_
*238 _237_
*239 _238_
*240 _239_
*241 _240_
*242 _241_
*243 _242_
*244 _243_
*245 _244_
*246 _245_
*247 _246_
*248 _247_
*249 _248_
*250 _249_
*251 _250_
*252 _251_
*253 _252_
*254 _253_
*255 _254_
*256 _255_
*257 _256_
*258 _257_
*259 _258_
*260 _259_
*261 _260_
*262 _261_
*263 _262_
*264 _263_
*265 _264_
*266 _265_
*267 _266_
*268 _267_
*269 _268_
*270 _269_
*271 _270_
*272 _271_
*273 _272_
*274 _273_
*275 _274_
*276 _275_
*277 _276_
*278 _277_
*279 _278_
*280 _279_
*281 _280_
*282 _281_
*283 _282_
*284 _283_
*285 _284_
*286 _285_
*287 _286_
*288 _287_
*289 _288_
*290 _289_
*291 _290_
*292 _291_
*293 _292_
*294 _293_
*295 _294_
*296 _295_
*297 _296_
*298 _297_
*299 _298_
*300 _299_
*301 _300_
*302 _301_
*303 _302_
*304 _303_
*305 _304_
*306 _305_
*307 _306_
*308 _307_
*309 _308_
*310 _309_
*311 _310_
*312 _311_
*313 _312_
*314 _313_
*315 _314_
*316 _315_
*317 _316_
*318 _317_
*319 _318_
*320 _319_
*321 _320_
*322 _321_
*323 _322_
*324 _323_
*325 _324_
*326 _325_
*327 _326_
*328 _327_
*329 _328_
*330 _329_
*331 _330_
*332 _331_
*333 _332_
*334 _333_
*335 _334_
*336 _335_
*337 _336_
*338 _337_
*339 _338_
*340 _339_
*341 _340_
*342 _341_
*343 _342_
*344 _343_
*345 _344_
*346 _345_
*347 _346_
*348 _347_
*349 _348_
*350 _349_
*351 _350_
*352 _351_
*353 _352_
*354 clknet_0_clk
*355 clk
*356 ena
*357 frequency_counter\.clk_counter\[0\]
*358 frequency_counter\.clk_counter\[10\]
*359 frequency_counter\.clk_counter\[11\]
*360 frequency_counter\.clk_counter\[1\]
*361 frequency_counter\.clk_counter\[2\]
*362 frequency_counter\.clk_counter\[3\]
*363 frequency_counter\.clk_counter\[4\]
*364 frequency_counter\.clk_counter\[5\]
*365 frequency_counter\.clk_counter\[6\]
*366 frequency_counter\.clk_counter\[7\]
*367 frequency_counter\.clk_counter\[8\]
*368 frequency_counter\.clk_counter\[9\]
*369 frequency_counter\.digit
*370 frequency_counter\.edge_counter\[0\]
*371 frequency_counter\.edge_counter\[1\]
*372 frequency_counter\.edge_counter\[2\]
*373 frequency_counter\.edge_counter\[3\]
*374 frequency_counter\.edge_counter\[4\]
*375 frequency_counter\.edge_counter\[5\]
*376 frequency_counter\.edge_counter\[6\]
*377 frequency_counter\.edge_detect0\.q0
*378 frequency_counter\.edge_detect0\.q1
*379 frequency_counter\.edge_detect0\.q2
*380 frequency_counter\.seven_segment0\.load
*381 frequency_counter\.seven_segment0\.ten_count\[0\]
*382 frequency_counter\.seven_segment0\.ten_count\[1\]
*383 frequency_counter\.seven_segment0\.ten_count\[2\]
*384 frequency_counter\.seven_segment0\.ten_count\[3\]
*385 frequency_counter\.seven_segment0\.ten_count_reg\[0\]
*386 frequency_counter\.seven_segment0\.ten_count_reg\[1\]
*387 frequency_counter\.seven_segment0\.ten_count_reg\[2\]
*388 frequency_counter\.seven_segment0\.ten_count_reg\[3\]
*389 frequency_counter\.seven_segment0\.unit_count\[0\]
*390 frequency_counter\.seven_segment0\.unit_count\[1\]
*391 frequency_counter\.seven_segment0\.unit_count\[2\]
*392 frequency_counter\.seven_segment0\.unit_count\[3\]
*393 frequency_counter\.seven_segment0\.unit_count_reg\[0\]
*394 frequency_counter\.seven_segment0\.unit_count_reg\[1\]
*395 frequency_counter\.seven_segment0\.unit_count_reg\[2\]
*396 frequency_counter\.seven_segment0\.unit_count_reg\[3\]
*397 frequency_counter\.update_period\[0\]
*398 frequency_counter\.update_period\[10\]
*399 frequency_counter\.update_period\[11\]
*400 frequency_counter\.update_period\[1\]
*401 frequency_counter\.update_period\[2\]
*402 frequency_counter\.update_period\[3\]
*403 frequency_counter\.update_period\[4\]
*404 frequency_counter\.update_period\[5\]
*405 frequency_counter\.update_period\[6\]
*406 frequency_counter\.update_period\[7\]
*407 frequency_counter\.update_period\[8\]
*408 frequency_counter\.update_period\[9\]
*409 rst_n
*410 ui_in[0]
*411 ui_in[1]
*412 ui_in[2]
*413 ui_in[3]
*414 ui_in[4]
*415 ui_in[5]
*416 ui_in[6]
*417 ui_in[7]
*418 uio_in[0]
*419 uio_in[1]
*420 uio_in[2]
*421 uio_in[3]
*422 uio_in[4]
*423 uio_in[5]
*424 uio_in[6]
*425 uio_in[7]
*426 uio_oe[0]
*427 uio_oe[1]
*428 uio_oe[2]
*429 uio_oe[3]
*430 uio_oe[4]
*431 uio_oe[5]
*432 uio_oe[6]
*433 uio_oe[7]
*434 uio_out[0]
*435 uio_out[1]
*436 uio_out[2]
*437 uio_out[3]
*438 uio_out[4]
*439 uio_out[5]
*440 uio_out[6]
*441 uio_out[7]
*442 uo_out[0]
*443 uo_out[1]
*444 uo_out[2]
*445 uo_out[3]
*446 uo_out[4]
*447 uo_out[5]
*448 uo_out[6]
*449 uo_out[7]
*452 net1
*453 net2
*454 net3
*455 net4
*456 net5
*457 net6
*458 net7
*459 net8
*460 net9
*461 net10
*462 net11
*463 net12
*464 net13
*465 net14
*466 net15
*467 net16
*468 net17
*469 net18
*470 net19
*471 net20
*472 net21
*473 net22
*474 net23
*475 net24
*476 net25
*477 net26
*478 net27
*479 net28
*480 net29
*481 net30
*482 net31
*483 net32
*484 net33
*485 net34
*486 net35
*487 net36
*488 net37
*489 net38
*490 net39
*491 net40
*492 net41
*493 net42
*494 net43
*495 net44
*496 net45
*497 net46
*498 net47
*499 net48
*500 net49
*501 net50
*502 net51
*503 net52
*504 net53
*505 net54
*506 net55
*507 net56
*508 net57
*509 net58
*510 net59
*511 net60
*512 net61
*513 net62
*514 net63
*515 net64
*516 net65
*517 net66
*518 net67
*519 net68
*520 net69
*521 net70
*522 net71
*523 net72
*524 net73
*525 net74
*526 net75
*527 net76
*528 net77
*529 net78
*530 net79
*531 net80
*532 net81
*533 net82
*534 net83
*535 net84
*536 net85
*537 net86
*538 net87
*539 net88
*540 net89
*541 net90
*542 net91
*543 net92
*544 net93
*545 net94
*546 net95
*547 net96
*548 net97
*549 net98
*550 net99
*551 net100
*552 net101
*553 net102
*554 net103
*555 net104
*556 net105
*557 net106
*558 clknet_3_0__leaf_clk
*559 clknet_3_1__leaf_clk
*560 clknet_3_2__leaf_clk
*561 clknet_3_3__leaf_clk
*562 clknet_3_4__leaf_clk
*563 clknet_3_5__leaf_clk
*564 clknet_3_6__leaf_clk
*565 clknet_3_7__leaf_clk
*566 net107
*567 _354_
*568 _355_
*569 _356_
*570 _357_
*571 _358_
*572 _359_
*573 _360_
*574 _361_
*575 _362_
*576 _363_
*577 _364_
*578 _365_
*579 _366_
*580 _367_
*581 _368_
*582 _369_
*583 _370_
*584 _371_
*585 _372_
*586 _373_
*587 _374_
*588 _375_
*589 _376_
*590 _377_
*591 _378_
*592 _379_
*593 _380_
*594 _381_
*595 _382_
*596 _383_
*597 _384_
*598 _385_
*599 _386_
*600 _387_
*601 _388_
*602 _389_
*603 _390_
*604 _391_
*605 _392_
*606 _393_
*607 _394_
*608 _395_
*609 _396_
*610 _397_
*611 _398_
*612 _399_
*613 _400_
*614 _401_
*615 _402_
*616 _403_
*617 _404_
*618 _405_
*619 _406_
*620 _407_
*621 _408_
*622 _409_
*623 _410_
*624 _411_
*625 _412_
*626 _413_
*627 _414_
*628 _415_
*629 _416_
*630 _417_
*631 _418_
*632 _419_
*633 _420_
*634 _421_
*635 _422_
*636 _423_
*637 _424_
*638 _425_
*639 _426_
*640 _427_
*641 _428_
*642 _429_
*643 _430_
*644 _431_
*645 _432_
*646 _433_
*647 _434_
*648 _435_
*649 _436_
*650 _437_
*651 _438_
*652 _439_
*653 _440_
*654 _441_
*655 _442_
*656 _443_
*657 _444_
*658 _445_
*659 _446_
*660 _447_
*661 _448_
*662 _449_
*663 _450_
*664 _451_
*665 _452_
*666 _453_
*667 _454_
*668 _455_
*669 _456_
*670 _457_
*671 _458_
*672 _459_
*673 _460_
*674 _461_
*675 _462_
*676 _463_
*677 _464_
*678 _465_
*679 _466_
*680 _467_
*681 _468_
*682 _469_
*683 _470_
*684 _471_
*685 _472_
*686 _473_
*687 _474_
*688 _475_
*689 _476_
*690 _477_
*691 _478_
*692 _479_
*693 _480_
*694 _481_
*695 _482_
*696 _483_
*697 _484_
*698 _485_
*699 _486_
*700 _487_
*701 _488_
*702 _489_
*703 _490_
*704 _491_
*705 _492_
*706 _493_
*707 _494_
*708 _495_
*709 _496_
*710 _497_
*711 _498_
*712 _499_
*713 _500_
*714 _501_
*715 _502_
*716 _503_
*717 _504_
*718 _505_
*719 _506_
*720 _507_
*721 _508_
*722 _509_
*723 _510_
*724 _511_
*725 _512_
*726 _513_
*727 _514_
*728 _515_
*729 _516_
*730 _517_
*731 _518_
*732 _519_
*733 _520_
*734 _521_
*735 _522_
*736 _523_
*737 _524_
*738 _525_
*739 _526_
*740 _527_
*741 _528_
*742 _529_
*743 _530_
*744 _531_
*745 _532_
*746 _533_
*747 _534_
*748 _535_
*749 _536_
*750 _537_
*751 _538_
*752 _539_
*753 _540_
*754 _541_
*755 _542_
*756 _543_
*757 _544_
*758 _545_
*759 _546_
*760 _547_
*761 _548_
*762 _549_
*763 _550_
*764 _551_
*765 _552_
*766 _553_
*767 _554_
*768 _555_
*769 _556_
*770 _557_
*771 _558_
*772 _559_
*773 _560_
*774 _561_
*775 _562_
*776 _563_
*777 _564_
*778 _565_
*779 _566_
*780 _567_
*781 _568_
*782 _569_
*783 _570_
*784 _571_
*785 _572_
*786 _573_
*787 _574_
*788 _575_
*789 _576_
*790 _577_
*791 _578_
*792 _579_
*793 _580_
*794 _581_
*795 _582_
*796 _583_
*797 _584_
*798 _585_
*799 _586_
*800 _587_
*801 _588_
*802 _589_
*803 _590_
*804 _591_
*805 _592_
*806 _593_
*807 _594_
*808 _595_
*809 _596_
*810 _597_
*811 _598_
*812 _599_
*813 _600_
*814 _601_
*815 _602_
*816 _603_
*817 _604_
*818 _605_
*819 _606_
*820 _607_
*821 _608_
*822 _609_
*823 _610_
*824 _611_
*825 _612_
*826 _613_
*827 _614_
*828 _615_
*829 _616_
*830 _617_
*831 _618_
*832 _619_
*833 _620_
*834 _621_
*835 _622_
*836 _623_
*837 _624_
*838 _625_
*839 _626_
*840 _627_
*841 _628_
*842 _629_
*843 _630_
*844 _631_
*845 _632_
*846 _633_
*847 _634_
*848 _635_
*849 _636_
*850 _637_
*851 _638_
*852 _639_
*853 _640_
*854 _641_
*855 _642_
*856 _643_
*857 _644_
*858 _645_
*859 _646_
*860 _647_
*861 _648_
*862 _649_
*863 _650_
*864 _651_
*865 _652_
*866 _653_
*867 _654_
*868 _655_
*869 _656_
*870 _657_
*871 _658_
*872 _659_
*873 clkbuf_0_clk
*874 _661_
*875 _662_
*876 _663_
*877 _664_
*878 _665_
*879 _666_
*880 _667_
*881 _668_
*882 _669_
*883 _670_
*884 _671_
*885 _672_
*886 _673_
*887 _674_
*888 _675_
*889 frequency_counter\.clk_counter\[0\]\$_SDFFE_PN0P_
*890 frequency_counter\.clk_counter\[10\]\$_SDFFE_PN0P_
*891 frequency_counter\.clk_counter\[11\]\$_SDFFE_PN0P_
*892 frequency_counter\.clk_counter\[1\]\$_SDFFE_PN0P_
*893 frequency_counter\.clk_counter\[2\]\$_SDFFE_PN0P_
*894 frequency_counter\.clk_counter\[3\]\$_SDFFE_PN0P_
*895 frequency_counter\.clk_counter\[4\]\$_SDFFE_PN0P_
*896 frequency_counter\.clk_counter\[5\]\$_SDFFE_PN0P_
*897 frequency_counter\.clk_counter\[6\]\$_SDFFE_PN0P_
*898 frequency_counter\.clk_counter\[7\]\$_SDFFE_PN0P_
*899 frequency_counter\.clk_counter\[8\]\$_SDFFE_PN0P_
*900 frequency_counter\.clk_counter\[9\]\$_SDFFE_PN0P_
*901 frequency_counter\.edge_counter\[0\]\$_SDFFE_PN0P_
*902 frequency_counter\.edge_counter\[1\]\$_SDFFE_PN0P_
*903 frequency_counter\.edge_counter\[2\]\$_SDFFE_PN0P_
*904 frequency_counter\.edge_counter\[3\]\$_SDFFE_PN0P_
*905 frequency_counter\.edge_counter\[4\]\$_SDFFE_PN0P_
*906 frequency_counter\.edge_counter\[5\]\$_SDFFE_PN0P_
*907 frequency_counter\.edge_counter\[6\]\$_SDFFE_PN0P_
*908 frequency_counter\.edge_detect0\.q0\$_DFF_P_
*909 frequency_counter\.edge_detect0\.q1\$_DFF_P_
*910 frequency_counter\.edge_detect0\.q2\$_DFF_P_
*911 frequency_counter\.seven_segment0\.digit\$_SDFF_PN0_
*912 frequency_counter\.seven_segment0\.ten_count_reg\[0\]\$_SDFFE_PN0P_
*913 frequency_counter\.seven_segment0\.ten_count_reg\[1\]\$_SDFFE_PN0P_
*914 frequency_counter\.seven_segment0\.ten_count_reg\[2\]\$_SDFFE_PN0P_
*915 frequency_counter\.seven_segment0\.ten_count_reg\[3\]\$_SDFFE_PN0P_
*916 frequency_counter\.seven_segment0\.unit_count_reg\[0\]\$_SDFFE_PN0P_
*917 frequency_counter\.seven_segment0\.unit_count_reg\[1\]\$_SDFFE_PN0P_
*918 frequency_counter\.seven_segment0\.unit_count_reg\[2\]\$_SDFFE_PN0P_
*919 frequency_counter\.seven_segment0\.unit_count_reg\[3\]\$_SDFFE_PN0P_
*920 frequency_counter\.state\[0\]\$_SDFFE_PN0P_
*921 frequency_counter\.state\[1\]\$_SDFFE_PN0P_
*922 frequency_counter\.ten_count\[0\]\$_SDFFE_PN0P_
*923 frequency_counter\.ten_count\[1\]\$_SDFFE_PN0P_
*924 frequency_counter\.ten_count\[2\]\$_SDFFE_PN0P_
*925 frequency_counter\.ten_count\[3\]\$_SDFFE_PN0P_
*926 frequency_counter\.unit_count\[0\]\$_SDFFE_PN0P_
*927 frequency_counter\.unit_count\[1\]\$_SDFFE_PN0P_
*928 frequency_counter\.unit_count\[2\]\$_SDFFE_PN0P_
*929 frequency_counter\.unit_count\[3\]\$_SDFFE_PN0P_
*930 frequency_counter\.update_digits\$_SDFFE_PN0N_
*931 frequency_counter\.update_period\[0\]\$_SDFFE_PN1P_
*932 frequency_counter\.update_period\[10\]\$_SDFFE_PN1P_
*933 frequency_counter\.update_period\[11\]\$_SDFFE_PN0P_
*934 frequency_counter\.update_period\[1\]\$_SDFFE_PN1P_
*935 frequency_counter\.update_period\[2\]\$_SDFFE_PN1P_
*936 frequency_counter\.update_period\[3\]\$_SDFFE_PN1P_
*937 frequency_counter\.update_period\[4\]\$_SDFFE_PN0P_
*938 frequency_counter\.update_period\[5\]\$_SDFFE_PN1P_
*939 frequency_counter\.update_period\[6\]\$_SDFFE_PN0P_
*940 frequency_counter\.update_period\[7\]\$_SDFFE_PN1P_
*941 frequency_counter\.update_period\[8\]\$_SDFFE_PN0P_
*942 frequency_counter\.update_period\[9\]\$_SDFFE_PN0P_
*943 input1
*944 input2
*945 input3
*946 input4
*947 input5
*948 input6
*949 input7
*950 input8
*951 input9
*952 input10
*953 input11
*954 input12
*955 input13
*956 input14
*957 output15
*958 output16
*959 output17
*960 output18
*961 output19
*962 output20
*963 output21
*964 output22
*965 output23
*966 output24
*967 output25
*968 output26
*969 output27
*970 output28
*971 output29
*972 output30
*973 output31
*974 output32
*975 output33
*976 output34
*977 output35
*978 output36
*979 output37
*980 output38
*981 fanout39
*982 fanout40
*983 fanout41
*984 fanout42
*985 fanout43
*986 fanout44
*987 fanout45
*988 fanout46
*989 fanout47
*990 fanout48
*991 fanout49
*992 fanout50
*993 fanout51
*994 fanout52
*995 frequency_counter\.clk_counter\[0\]\$_SDFFE_PN0P__53
*996 frequency_counter\.clk_counter\[10\]\$_SDFFE_PN0P__54
*997 frequency_counter\.clk_counter\[11\]\$_SDFFE_PN0P__55
*998 frequency_counter\.clk_counter\[1\]\$_SDFFE_PN0P__56
*999 frequency_counter\.clk_counter\[2\]\$_SDFFE_PN0P__57
*1000 frequency_counter\.clk_counter\[3\]\$_SDFFE_PN0P__58
*1001 frequency_counter\.clk_counter\[4\]\$_SDFFE_PN0P__59
*1002 frequency_counter\.clk_counter\[5\]\$_SDFFE_PN0P__60
*1003 frequency_counter\.clk_counter\[6\]\$_SDFFE_PN0P__61
*1004 frequency_counter\.clk_counter\[7\]\$_SDFFE_PN0P__62
*1005 frequency_counter\.clk_counter\[8\]\$_SDFFE_PN0P__63
*1006 frequency_counter\.clk_counter\[9\]\$_SDFFE_PN0P__64
*1007 frequency_counter\.edge_counter\[0\]\$_SDFFE_PN0P__65
*1008 frequency_counter\.edge_counter\[1\]\$_SDFFE_PN0P__66
*1009 frequency_counter\.edge_counter\[2\]\$_SDFFE_PN0P__67
*1010 frequency_counter\.edge_counter\[3\]\$_SDFFE_PN0P__68
*1011 frequency_counter\.edge_counter\[4\]\$_SDFFE_PN0P__69
*1012 frequency_counter\.edge_counter\[5\]\$_SDFFE_PN0P__70
*1013 frequency_counter\.edge_counter\[6\]\$_SDFFE_PN0P__71
*1014 frequency_counter\.edge_detect0\.q0\$_DFF_P__72
*1015 frequency_counter\.edge_detect0\.q1\$_DFF_P__73
*1016 frequency_counter\.edge_detect0\.q2\$_DFF_P__74
*1017 frequency_counter\.seven_segment0\.digit\$_SDFF_PN0__75
*1018 frequency_counter\.seven_segment0\.ten_count_reg\[0\]\$_SDFFE_PN0P__76
*1019 frequency_counter\.seven_segment0\.ten_count_reg\[1\]\$_SDFFE_PN0P__77
*1020 frequency_counter\.seven_segment0\.ten_count_reg\[2\]\$_SDFFE_PN0P__78
*1021 frequency_counter\.seven_segment0\.ten_count_reg\[3\]\$_SDFFE_PN0P__79
*1022 frequency_counter\.seven_segment0\.unit_count_reg\[0\]\$_SDFFE_PN0P__80
*1023 frequency_counter\.seven_segment0\.unit_count_reg\[1\]\$_SDFFE_PN0P__81
*1024 frequency_counter\.seven_segment0\.unit_count_reg\[2\]\$_SDFFE_PN0P__82
*1025 frequency_counter\.seven_segment0\.unit_count_reg\[3\]\$_SDFFE_PN0P__83
*1026 frequency_counter\.state\[0\]\$_SDFFE_PN0P__84
*1027 frequency_counter\.state\[1\]\$_SDFFE_PN0P__85
*1028 frequency_counter\.ten_count\[0\]\$_SDFFE_PN0P__86
*1029 frequency_counter\.ten_count\[1\]\$_SDFFE_PN0P__87
*1030 frequency_counter\.ten_count\[2\]\$_SDFFE_PN0P__88
*1031 frequency_counter\.ten_count\[3\]\$_SDFFE_PN0P__89
*1032 frequency_counter\.unit_count\[0\]\$_SDFFE_PN0P__90
*1033 frequency_counter\.unit_count\[1\]\$_SDFFE_PN0P__91
*1034 frequency_counter\.unit_count\[2\]\$_SDFFE_PN0P__92
*1035 frequency_counter\.unit_count\[3\]\$_SDFFE_PN0P__93
*1036 frequency_counter\.update_digits\$_SDFFE_PN0N__94
*1037 frequency_counter\.update_period\[0\]\$_SDFFE_PN1P__95
*1038 frequency_counter\.update_period\[10\]\$_SDFFE_PN1P__96
*1039 frequency_counter\.update_period\[11\]\$_SDFFE_PN0P__97
*1040 frequency_counter\.update_period\[1\]\$_SDFFE_PN1P__98
*1041 frequency_counter\.update_period\[2\]\$_SDFFE_PN1P__99
*1042 frequency_counter\.update_period\[3\]\$_SDFFE_PN1P__100
*1043 frequency_counter\.update_period\[4\]\$_SDFFE_PN0P__101
*1044 frequency_counter\.update_period\[5\]\$_SDFFE_PN1P__102
*1045 frequency_counter\.update_period\[6\]\$_SDFFE_PN0P__103
*1046 frequency_counter\.update_period\[7\]\$_SDFFE_PN1P__104
*1047 frequency_counter\.update_period\[8\]\$_SDFFE_PN0P__105
*1048 frequency_counter\.update_period\[9\]\$_SDFFE_PN0P__106
*1049 clkbuf_3_0__f_clk
*1050 clkbuf_3_1__f_clk
*1051 clkbuf_3_2__f_clk
*1052 clkbuf_3_3__f_clk
*1053 clkbuf_3_4__f_clk
*1054 clkbuf_3_5__f_clk
*1055 clkbuf_3_6__f_clk
*1056 clkbuf_3_7__f_clk
*1057 clkload0
*1058 clkload1
*1059 fanout1
*1060 FILLER_0_0
*1061 FILLER_0_7
*1062 FILLER_0_14
*1063 FILLER_0_21
*1064 FILLER_0_28
*1065 FILLER_0_35
*1066 FILLER_0_42
*1067 FILLER_0_49
*1068 FILLER_0_56
*1069 FILLER_0_63
*1070 FILLER_0_70
*1071 FILLER_0_77
*1072 FILLER_0_84
*1073 FILLER_0_91
*1074 FILLER_0_98
*1075 FILLER_0_105
*1076 FILLER_0_112
*1077 FILLER_0_119
*1078 FILLER_0_126
*1079 FILLER_0_133
*1080 FILLER_0_140
*1081 FILLER_0_147
*1082 FILLER_0_154
*1083 FILLER_0_161
*1084 FILLER_0_168
*1085 FILLER_0_175
*1086 FILLER_0_182
*1087 FILLER_0_189
*1088 FILLER_0_196
*1089 FILLER_0_203
*1090 FILLER_0_210
*1091 FILLER_0_217
*1092 FILLER_0_224
*1093 FILLER_0_231
*1094 FILLER_0_238
*1095 FILLER_0_245
*1096 FILLER_0_252
*1097 FILLER_0_259
*1098 FILLER_0_266
*1099 FILLER_0_273
*1100 FILLER_0_280
*1101 FILLER_0_287
*1102 FILLER_0_294
*1103 FILLER_0_301
*1104 FILLER_0_308
*1105 FILLER_0_315
*1106 FILLER_0_322
*1107 FILLER_0_329
*1108 FILLER_0_336
*1109 FILLER_0_343
*1110 FILLER_0_350
*1111 FILLER_0_357
*1112 FILLER_0_364
*1113 FILLER_0_371
*1114 FILLER_0_378
*1115 FILLER_0_385
*1116 FILLER_0_392
*1117 FILLER_0_399
*1118 FILLER_0_406
*1119 FILLER_0_413
*1120 FILLER_0_420
*1121 FILLER_0_427
*1122 FILLER_0_429
*1123 FILLER_1_0
*1124 FILLER_1_7
*1125 FILLER_1_14
*1126 FILLER_1_21
*1127 FILLER_1_28
*1128 FILLER_1_35
*1129 FILLER_1_42
*1130 FILLER_1_49
*1131 FILLER_1_56
*1132 FILLER_1_63
*1133 FILLER_1_70
*1134 FILLER_1_77
*1135 FILLER_1_84
*1136 FILLER_1_91
*1137 FILLER_1_98
*1138 FILLER_1_105
*1139 FILLER_1_112
*1140 FILLER_1_119
*1141 FILLER_1_126
*1142 FILLER_1_133
*1143 FILLER_1_140
*1144 FILLER_1_147
*1145 FILLER_1_154
*1146 FILLER_1_161
*1147 FILLER_1_168
*1148 FILLER_1_175
*1149 FILLER_1_182
*1150 FILLER_1_189
*1151 FILLER_1_196
*1152 FILLER_1_203
*1153 FILLER_1_210
*1154 FILLER_1_217
*1155 FILLER_1_224
*1156 FILLER_1_231
*1157 FILLER_1_238
*1158 FILLER_1_245
*1159 FILLER_1_252
*1160 FILLER_1_259
*1161 FILLER_1_266
*1162 FILLER_1_273
*1163 FILLER_1_280
*1164 FILLER_1_287
*1165 FILLER_1_294
*1166 FILLER_1_301
*1167 FILLER_1_308
*1168 FILLER_1_315
*1169 FILLER_1_322
*1170 FILLER_1_329
*1171 FILLER_1_336
*1172 FILLER_1_343
*1173 FILLER_1_350
*1174 FILLER_1_357
*1175 FILLER_1_364
*1176 FILLER_1_371
*1177 FILLER_1_378
*1178 FILLER_1_385
*1179 FILLER_1_392
*1180 FILLER_1_399
*1181 FILLER_1_406
*1182 FILLER_1_413
*1183 FILLER_1_420
*1184 FILLER_1_427
*1185 FILLER_1_429
*1186 FILLER_2_0
*1187 FILLER_2_7
*1188 FILLER_2_14
*1189 FILLER_2_21
*1190 FILLER_2_28
*1191 FILLER_2_35
*1192 FILLER_2_42
*1193 FILLER_2_49
*1194 FILLER_2_56
*1195 FILLER_2_63
*1196 FILLER_2_70
*1197 FILLER_2_77
*1198 FILLER_2_84
*1199 FILLER_2_91
*1200 FILLER_2_98
*1201 FILLER_2_105
*1202 FILLER_2_112
*1203 FILLER_2_119
*1204 FILLER_2_126
*1205 FILLER_2_133
*1206 FILLER_2_140
*1207 FILLER_2_147
*1208 FILLER_2_154
*1209 FILLER_2_161
*1210 FILLER_2_168
*1211 FILLER_2_175
*1212 FILLER_2_182
*1213 FILLER_2_189
*1214 FILLER_2_196
*1215 FILLER_2_203
*1216 FILLER_2_210
*1217 FILLER_2_217
*1218 FILLER_2_224
*1219 FILLER_2_231
*1220 FILLER_2_238
*1221 FILLER_2_245
*1222 FILLER_2_252
*1223 FILLER_2_259
*1224 FILLER_2_266
*1225 FILLER_2_273
*1226 FILLER_2_280
*1227 FILLER_2_287
*1228 FILLER_2_294
*1229 FILLER_2_301
*1230 FILLER_2_308
*1231 FILLER_2_315
*1232 FILLER_2_322
*1233 FILLER_2_329
*1234 FILLER_2_336
*1235 FILLER_2_343
*1236 FILLER_2_350
*1237 FILLER_2_357
*1238 FILLER_2_364
*1239 FILLER_2_371
*1240 FILLER_2_378
*1241 FILLER_2_385
*1242 FILLER_2_392
*1243 FILLER_2_399
*1244 FILLER_2_406
*1245 FILLER_2_413
*1246 FILLER_2_420
*1247 FILLER_2_427
*1248 FILLER_2_429
*1249 FILLER_3_0
*1250 FILLER_3_7
*1251 FILLER_3_14
*1252 FILLER_3_21
*1253 FILLER_3_28
*1254 FILLER_3_35
*1255 FILLER_3_42
*1256 FILLER_3_49
*1257 FILLER_3_56
*1258 FILLER_3_63
*1259 FILLER_3_70
*1260 FILLER_3_77
*1261 FILLER_3_84
*1262 FILLER_3_91
*1263 FILLER_3_98
*1264 FILLER_3_105
*1265 FILLER_3_112
*1266 FILLER_3_119
*1267 FILLER_3_126
*1268 FILLER_3_133
*1269 FILLER_3_140
*1270 FILLER_3_147
*1271 FILLER_3_154
*1272 FILLER_3_161
*1273 FILLER_3_168
*1274 FILLER_3_175
*1275 FILLER_3_182
*1276 FILLER_3_189
*1277 FILLER_3_196
*1278 FILLER_3_203
*1279 FILLER_3_210
*1280 FILLER_3_217
*1281 FILLER_3_224
*1282 FILLER_3_231
*1283 FILLER_3_238
*1284 FILLER_3_245
*1285 FILLER_3_252
*1286 FILLER_3_259
*1287 FILLER_3_266
*1288 FILLER_3_273
*1289 FILLER_3_280
*1290 FILLER_3_287
*1291 FILLER_3_294
*1292 FILLER_3_301
*1293 FILLER_3_308
*1294 FILLER_3_315
*1295 FILLER_3_322
*1296 FILLER_3_329
*1297 FILLER_3_336
*1298 FILLER_3_343
*1299 FILLER_3_350
*1300 FILLER_3_357
*1301 FILLER_3_364
*1302 FILLER_3_371
*1303 FILLER_3_378
*1304 FILLER_3_385
*1305 FILLER_3_392
*1306 FILLER_3_399
*1307 FILLER_3_406
*1308 FILLER_3_413
*1309 FILLER_3_420
*1310 FILLER_3_427
*1311 FILLER_3_429
*1312 FILLER_4_0
*1313 FILLER_4_7
*1314 FILLER_4_14
*1315 FILLER_4_21
*1316 FILLER_4_28
*1317 FILLER_4_35
*1318 FILLER_4_42
*1319 FILLER_4_49
*1320 FILLER_4_56
*1321 FILLER_4_63
*1322 FILLER_4_70
*1323 FILLER_4_77
*1324 FILLER_4_84
*1325 FILLER_4_91
*1326 FILLER_4_98
*1327 FILLER_4_105
*1328 FILLER_4_112
*1329 FILLER_4_119
*1330 FILLER_4_126
*1331 FILLER_4_133
*1332 FILLER_4_140
*1333 FILLER_4_147
*1334 FILLER_4_154
*1335 FILLER_4_161
*1336 FILLER_4_168
*1337 FILLER_4_175
*1338 FILLER_4_182
*1339 FILLER_4_189
*1340 FILLER_4_196
*1341 FILLER_4_203
*1342 FILLER_4_210
*1343 FILLER_4_217
*1344 FILLER_4_224
*1345 FILLER_4_231
*1346 FILLER_4_238
*1347 FILLER_4_245
*1348 FILLER_4_252
*1349 FILLER_4_259
*1350 FILLER_4_266
*1351 FILLER_4_273
*1352 FILLER_4_280
*1353 FILLER_4_287
*1354 FILLER_4_294
*1355 FILLER_4_301
*1356 FILLER_4_308
*1357 FILLER_4_315
*1358 FILLER_4_322
*1359 FILLER_4_329
*1360 FILLER_4_336
*1361 FILLER_4_343
*1362 FILLER_4_350
*1363 FILLER_4_357
*1364 FILLER_4_364
*1365 FILLER_4_371
*1366 FILLER_4_378
*1367 FILLER_4_385
*1368 FILLER_4_392
*1369 FILLER_4_399
*1370 FILLER_4_406
*1371 FILLER_4_413
*1372 FILLER_4_420
*1373 FILLER_4_427
*1374 FILLER_4_429
*1375 FILLER_5_0
*1376 FILLER_5_7
*1377 FILLER_5_14
*1378 FILLER_5_21
*1379 FILLER_5_28
*1380 FILLER_5_35
*1381 FILLER_5_42
*1382 FILLER_5_49
*1383 FILLER_5_56
*1384 FILLER_5_63
*1385 FILLER_5_70
*1386 FILLER_5_77
*1387 FILLER_5_84
*1388 FILLER_5_91
*1389 FILLER_5_98
*1390 FILLER_5_105
*1391 FILLER_5_112
*1392 FILLER_5_119
*1393 FILLER_5_126
*1394 FILLER_5_133
*1395 FILLER_5_140
*1396 FILLER_5_147
*1397 FILLER_5_154
*1398 FILLER_5_161
*1399 FILLER_5_168
*1400 FILLER_5_175
*1401 FILLER_5_182
*1402 FILLER_5_189
*1403 FILLER_5_196
*1404 FILLER_5_203
*1405 FILLER_5_210
*1406 FILLER_5_217
*1407 FILLER_5_224
*1408 FILLER_5_231
*1409 FILLER_5_238
*1410 FILLER_5_245
*1411 FILLER_5_252
*1412 FILLER_5_259
*1413 FILLER_5_266
*1414 FILLER_5_273
*1415 FILLER_5_280
*1416 FILLER_5_287
*1417 FILLER_5_294
*1418 FILLER_5_301
*1419 FILLER_5_308
*1420 FILLER_5_315
*1421 FILLER_5_322
*1422 FILLER_5_329
*1423 FILLER_5_336
*1424 FILLER_5_343
*1425 FILLER_5_350
*1426 FILLER_5_357
*1427 FILLER_5_364
*1428 FILLER_5_371
*1429 FILLER_5_378
*1430 FILLER_5_385
*1431 FILLER_5_392
*1432 FILLER_5_399
*1433 FILLER_5_406
*1434 FILLER_5_413
*1435 FILLER_5_420
*1436 FILLER_5_427
*1437 FILLER_5_429
*1438 FILLER_6_0
*1439 FILLER_6_7
*1440 FILLER_6_14
*1441 FILLER_6_21
*1442 FILLER_6_28
*1443 FILLER_6_35
*1444 FILLER_6_42
*1445 FILLER_6_49
*1446 FILLER_6_56
*1447 FILLER_6_63
*1448 FILLER_6_70
*1449 FILLER_6_77
*1450 FILLER_6_84
*1451 FILLER_6_91
*1452 FILLER_6_98
*1453 FILLER_6_105
*1454 FILLER_6_112
*1455 FILLER_6_119
*1456 FILLER_6_126
*1457 FILLER_6_133
*1458 FILLER_6_140
*1459 FILLER_6_147
*1460 FILLER_6_154
*1461 FILLER_6_161
*1462 FILLER_6_168
*1463 FILLER_6_175
*1464 FILLER_6_182
*1465 FILLER_6_189
*1466 FILLER_6_196
*1467 FILLER_6_203
*1468 FILLER_6_210
*1469 FILLER_6_217
*1470 FILLER_6_224
*1471 FILLER_6_231
*1472 FILLER_6_238
*1473 FILLER_6_245
*1474 FILLER_6_252
*1475 FILLER_6_259
*1476 FILLER_6_266
*1477 FILLER_6_273
*1478 FILLER_6_280
*1479 FILLER_6_287
*1480 FILLER_6_294
*1481 FILLER_6_301
*1482 FILLER_6_308
*1483 FILLER_6_315
*1484 FILLER_6_322
*1485 FILLER_6_329
*1486 FILLER_6_336
*1487 FILLER_6_343
*1488 FILLER_6_350
*1489 FILLER_6_357
*1490 FILLER_6_364
*1491 FILLER_6_371
*1492 FILLER_6_378
*1493 FILLER_6_385
*1494 FILLER_6_392
*1495 FILLER_6_399
*1496 FILLER_6_406
*1497 FILLER_6_413
*1498 FILLER_6_420
*1499 FILLER_6_427
*1500 FILLER_6_429
*1501 FILLER_7_0
*1502 FILLER_7_7
*1503 FILLER_7_14
*1504 FILLER_7_21
*1505 FILLER_7_28
*1506 FILLER_7_35
*1507 FILLER_7_42
*1508 FILLER_7_49
*1509 FILLER_7_56
*1510 FILLER_7_63
*1511 FILLER_7_70
*1512 FILLER_7_77
*1513 FILLER_7_84
*1514 FILLER_7_91
*1515 FILLER_7_98
*1516 FILLER_7_105
*1517 FILLER_7_112
*1518 FILLER_7_119
*1519 FILLER_7_126
*1520 FILLER_7_133
*1521 FILLER_7_140
*1522 FILLER_7_147
*1523 FILLER_7_154
*1524 FILLER_7_161
*1525 FILLER_7_168
*1526 FILLER_7_175
*1527 FILLER_7_182
*1528 FILLER_7_189
*1529 FILLER_7_196
*1530 FILLER_7_203
*1531 FILLER_7_210
*1532 FILLER_7_217
*1533 FILLER_7_224
*1534 FILLER_7_231
*1535 FILLER_7_238
*1536 FILLER_7_245
*1537 FILLER_7_252
*1538 FILLER_7_259
*1539 FILLER_7_266
*1540 FILLER_7_273
*1541 FILLER_7_280
*1542 FILLER_7_287
*1543 FILLER_7_294
*1544 FILLER_7_301
*1545 FILLER_7_308
*1546 FILLER_7_315
*1547 FILLER_7_322
*1548 FILLER_7_329
*1549 FILLER_7_336
*1550 FILLER_7_343
*1551 FILLER_7_350
*1552 FILLER_7_357
*1553 FILLER_7_364
*1554 FILLER_7_371
*1555 FILLER_7_378
*1556 FILLER_7_385
*1557 FILLER_7_392
*1558 FILLER_7_399
*1559 FILLER_7_406
*1560 FILLER_7_413
*1561 FILLER_7_420
*1562 FILLER_7_427
*1563 FILLER_7_429
*1564 FILLER_8_0
*1565 FILLER_8_7
*1566 FILLER_8_14
*1567 FILLER_8_21
*1568 FILLER_8_28
*1569 FILLER_8_35
*1570 FILLER_8_42
*1571 FILLER_8_49
*1572 FILLER_8_56
*1573 FILLER_8_63
*1574 FILLER_8_70
*1575 FILLER_8_77
*1576 FILLER_8_84
*1577 FILLER_8_91
*1578 FILLER_8_98
*1579 FILLER_8_105
*1580 FILLER_8_112
*1581 FILLER_8_119
*1582 FILLER_8_126
*1583 FILLER_8_133
*1584 FILLER_8_140
*1585 FILLER_8_147
*1586 FILLER_8_154
*1587 FILLER_8_161
*1588 FILLER_8_168
*1589 FILLER_8_175
*1590 FILLER_8_182
*1591 FILLER_8_189
*1592 FILLER_8_196
*1593 FILLER_8_203
*1594 FILLER_8_210
*1595 FILLER_8_217
*1596 FILLER_8_224
*1597 FILLER_8_231
*1598 FILLER_8_238
*1599 FILLER_8_245
*1600 FILLER_8_252
*1601 FILLER_8_259
*1602 FILLER_8_266
*1603 FILLER_8_273
*1604 FILLER_8_280
*1605 FILLER_8_287
*1606 FILLER_8_294
*1607 FILLER_8_301
*1608 FILLER_8_308
*1609 FILLER_8_315
*1610 FILLER_8_322
*1611 FILLER_8_329
*1612 FILLER_8_336
*1613 FILLER_8_343
*1614 FILLER_8_350
*1615 FILLER_8_357
*1616 FILLER_8_364
*1617 FILLER_8_371
*1618 FILLER_8_378
*1619 FILLER_8_385