*SPEF "ieee 1481-1999"
*DESIGN "tt_um_htfab_latch_test"
*DATE "05:48:41 Thursday October 24, 2024"
*VENDOR "The OpenROAD Project"
*PROGRAM "OpenROAD"
*VERSION "v2.0-16649-g40811f37f"
*DESIGN_FLOW "NAME_SCOPE LOCAL" "PIN_CAP NONE"
*DIVIDER /
*DELIMITER :
*BUS_DELIMITER []
*T_UNIT 1 NS
*C_UNIT 1 PF
*R_UNIT 1 OHM
*L_UNIT 1 HENRY

*NAME_MAP
*2 net29
*3 clk
*4 ena
*5 n_q
*6 p_q
*7 rst_n
*8 ui_in[0]
*9 ui_in[1]
*10 ui_in[2]
*11 ui_in[3]
*12 ui_in[4]
*13 ui_in[5]
*14 ui_in[6]
*15 ui_in[7]
*16 uio_in[0]
*17 uio_in[1]
*18 uio_in[2]
*19 uio_in[3]
*20 uio_in[4]
*21 uio_in[5]
*22 uio_in[6]
*23 uio_in[7]
*24 uio_oe[0]
*25 uio_oe[1]
*26 uio_oe[2]
*27 uio_oe[3]
*28 uio_oe[4]
*29 uio_oe[5]
*30 uio_oe[6]
*31 uio_oe[7]
*32 uio_out[0]
*33 uio_out[1]
*34 uio_out[2]
*35 uio_out[3]
*36 uio_out[4]
*37 uio_out[5]
*38 uio_out[6]
*39 uio_out[7]
*40 uo_out[0]
*41 uo_out[1]
*42 uo_out[2]
*43 uo_out[3]
*44 uo_out[4]
*45 uo_out[5]
*46 uo_out[6]
*47 uo_out[7]
*50 net1
*51 net2
*52 net3
*53 net4
*54 net5
*55 net6
*56 net7
*57 net8
*58 net9
*59 net10
*60 net11
*61 net12
*62 net13
*63 net14
*64 net15
*65 net16
*66 net17
*67 net18
*68 net19
*69 net20
*70 net21
*71 net22
*72 net23
*73 net24
*74 net25
*75 net26
*76 net27
*77 net28
*78 FILLER_0_0
*79 n_q\$_DLATCH_N_\._TECHMAP_DLATCH_N_29
*80 _04_
*81 _05_
*82 _06_
*83 _07_
*84 _08_
*85 _09_
*86 _10_
*87 _11_
*88 _12_
*89 _13_
*90 _14_
*91 _15_
*92 _16_
*93 _17_
*94 _18_
*95 _19_
*96 _20_
*97 _21_
*98 _22_
*99 _23_
*100 _24_
*101 _25_
*102 _26_
*103 _27_
*104 n_q\$_DLATCH_N_\._TECHMAP_DLATCH_N
*105 p_q\$_DLATCH_P_\._TECHMAP_DLATCH_P
*106 input1
*107 input2
*108 input3
*109 input4
*110 output5
*111 output6
*112 _04__7
*113 _05__8
*114 _06__9
*115 _07__10
*116 _08__11
*117 _09__12
*118 _10__13
*119 _11__14
*120 _12__15
*121 _13__16
*122 _14__17
*123 _15__18
*124 _16__19
*125 _17__20
*126 _18__21
*127 _19__22
*128 _22__23
*129 _23__24
*130 _24__25
*131 _25__26
*132 _26__27
*133 _27__28
*134 FILLER_0_7
*135 FILLER_0_14
*136 FILLER_0_21
*137 FILLER_0_28
*138 FILLER_0_35
*139 FILLER_0_42
*140 FILLER_0_49
*141 FILLER_0_56
*142 FILLER_0_63
*143 FILLER_0_70
*144 FILLER_0_77
*145 FILLER_0_84
*146 FILLER_0_91
*147 FILLER_0_98
*148 FILLER_0_105
*149 FILLER_0_112
*150 FILLER_0_119
*151 FILLER_0_126
*152 FILLER_0_133
*153 FILLER_0_140
*154 FILLER_0_147
*155 FILLER_0_154
*156 FILLER_0_161
*157 FILLER_0_168
*158 FILLER_0_175
*159 FILLER_0_182
*160 FILLER_0_189
*161 FILLER_0_196
*162 FILLER_0_203
*163 FILLER_0_210
*164 FILLER_0_217
*165 FILLER_0_224
*166 FILLER_0_231
*167 FILLER_0_238
*168 FILLER_0_245
*169 FILLER_0_252
*170 FILLER_0_259
*171 FILLER_0_266
*172 FILLER_0_273
*173 FILLER_0_280
*174 FILLER_0_287
*175 FILLER_0_294
*176 FILLER_0_301
*177 FILLER_0_308
*178 FILLER_0_315
*179 FILLER_0_322
*180 FILLER_0_329
*181 FILLER_0_336
*182 FILLER_0_343
*183 FILLER_0_350
*184 FILLER_0_357
*185 FILLER_0_364
*186 FILLER_0_371
*187 FILLER_0_378
*188 FILLER_0_385
*189 FILLER_0_392
*190 FILLER_0_399
*191 FILLER_0_406
*192 FILLER_0_413
*193 FILLER_0_420
*194 FILLER_0_427
*195 FILLER_0_429
*196 FILLER_1_0
*197 FILLER_1_7
*198 FILLER_1_14
*199 FILLER_1_21
*200 FILLER_1_28
*201 FILLER_1_35
*202 FILLER_1_42
*203 FILLER_1_49
*204 FILLER_1_56
*205 FILLER_1_63
*206 FILLER_1_70
*207 FILLER_1_77
*208 FILLER_1_84
*209 FILLER_1_91
*210 FILLER_1_98
*211 FILLER_1_105
*212 FILLER_1_112
*213 FILLER_1_119
*214 FILLER_1_126
*215 FILLER_1_133
*216 FILLER_1_140
*217 FILLER_1_147
*218 FILLER_1_154
*219 FILLER_1_161
*220 FILLER_1_168
*221 FILLER_1_175
*222 FILLER_1_182
*223 FILLER_1_189
*224 FILLER_1_196
*225 FILLER_1_203
*226 FILLER_1_210
*227 FILLER_1_217
*228 FILLER_1_224
*229 FILLER_1_231
*230 FILLER_1_238
*231 FILLER_1_245
*232 FILLER_1_252
*233 FILLER_1_259
*234 FILLER_1_266
*235 FILLER_1_273
*236 FILLER_1_280
*237 FILLER_1_287
*238 FILLER_1_294
*239 FILLER_1_301
*240 FILLER_1_308
*241 FILLER_1_315
*242 FILLER_1_322
*243 FILLER_1_329
*244 FILLER_1_336
*245 FILLER_1_343
*246 FILLER_1_350
*247 FILLER_1_357
*248 FILLER_1_364
*249 FILLER_1_371
*250 FILLER_1_378
*251 FILLER_1_385
*252 FILLER_1_392
*253 FILLER_1_399
*254 FILLER_1_406
*255 FILLER_1_413
*256 FILLER_1_420
*257 FILLER_1_427
*258 FILLER_1_429
*259 FILLER_2_0
*260 FILLER_2_7
*261 FILLER_2_14
*262 FILLER_2_21
*263 FILLER_2_28
*264 FILLER_2_35
*265 FILLER_2_42
*266 FILLER_2_49
*267 FILLER_2_56
*268 FILLER_2_63
*269 FILLER_2_70
*270 FILLER_2_77
*271 FILLER_2_84
*272 FILLER_2_91
*273 FILLER_2_98
*274 FILLER_2_105
*275 FILLER_2_112
*276 FILLER_2_119
*277 FILLER_2_126
*278 FILLER_2_133
*279 FILLER_2_140
*280 FILLER_2_147
*281 FILLER_2_154
*282 FILLER_2_161
*283 FILLER_2_168
*284 FILLER_2_175
*285 FILLER_2_182
*286 FILLER_2_189
*287 FILLER_2_196
*288 FILLER_2_203
*289 FILLER_2_210
*290 FILLER_2_217
*291 FILLER_2_224
*292 FILLER_2_231
*293 FILLER_2_238
*294 FILLER_2_245
*295 FILLER_2_252
*296 FILLER_2_259
*297 FILLER_2_266
*298 FILLER_2_273
*299 FILLER_2_280
*300 FILLER_2_287
*301 FILLER_2_294
*302 FILLER_2_301
*303 FILLER_2_308
*304 FILLER_2_315
*305 FILLER_2_322
*306 FILLER_2_329
*307 FILLER_2_336
*308 FILLER_2_343
*309 FILLER_2_350
*310 FILLER_2_357
*311 FILLER_2_364
*312 FILLER_2_371
*313 FILLER_2_378
*314 FILLER_2_385
*315 FILLER_2_392
*316 FILLER_2_399
*317 FILLER_2_406
*318 FILLER_2_413
*319 FILLER_2_420
*320 FILLER_2_427
*321 FILLER_2_429
*322 FILLER_3_0
*323 FILLER_3_7
*324 FILLER_3_14
*325 FILLER_3_21
*326 FILLER_3_28
*327 FILLER_3_35
*328 FILLER_3_42
*329 FILLER_3_49
*330 FILLER_3_56
*331 FILLER_3_63
*332 FILLER_3_70
*333 FILLER_3_77
*334 FILLER_3_84
*335 FILLER_3_91
*336 FILLER_3_98
*337 FILLER_3_105
*338 FILLER_3_112
*339 FILLER_3_119
*340 FILLER_3_126
*341 FILLER_3_133
*342 FILLER_3_140
*343 FILLER_3_147
*344 FILLER_3_154
*345 FILLER_3_161
*346 FILLER_3_168
*347 FILLER_3_175
*348 FILLER_3_182
*349 FILLER_3_189
*350 FILLER_3_196
*351 FILLER_3_203
*352 FILLER_3_210
*353 FILLER_3_217
*354 FILLER_3_224
*355 FILLER_3_231
*356 FILLER_3_238
*357 FILLER_3_245
*358 FILLER_3_252
*359 FILLER_3_259
*360 FILLER_3_266
*361 FILLER_3_273
*362 FILLER_3_280
*363 FILLER_3_287
*364 FILLER_3_294
*365 FILLER_3_301
*366 FILLER_3_308
*367 FILLER_3_315
*368 FILLER_3_322
*369 FILLER_3_329
*370 FILLER_3_336
*371 FILLER_3_343
*372 FILLER_3_350
*373 FILLER_3_357
*374 FILLER_3_364
*375 FILLER_3_371
*376 FILLER_3_378
*377 FILLER_3_385
*378 FILLER_3_392
*379 FILLER_3_399
*380 FILLER_3_406
*381 FILLER_3_413
*382 FILLER_3_420
*383 FILLER_3_427
*384 FILLER_3_429
*385 FILLER_4_0
*386 FILLER_4_7
*387 FILLER_4_14
*388 FILLER_4_21
*389 FILLER_4_28
*390 FILLER_4_35
*391 FILLER_4_42
*392 FILLER_4_49
*393 FILLER_4_56
*394 FILLER_4_63
*395 FILLER_4_70
*396 FILLER_4_77
*397 FILLER_4_84
*398 FILLER_4_91
*399 FILLER_4_98
*400 FILLER_4_105
*401 FILLER_4_112
*402 FILLER_4_119
*403 FILLER_4_126
*404 FILLER_4_133
*405 FILLER_4_140
*406 FILLER_4_147
*407 FILLER_4_154
*408 FILLER_4_161
*409 FILLER_4_168
*410 FILLER_4_175
*411 FILLER_4_182
*412 FILLER_4_189
*413 FILLER_4_196
*414 FILLER_4_203
*415 FILLER_4_210
*416 FILLER_4_217
*417 FILLER_4_224
*418 FILLER_4_231
*419 FILLER_4_238
*420 FILLER_4_245
*421 FILLER_4_252
*422 FILLER_4_259
*423 FILLER_4_266
*424 FILLER_4_273
*425 FILLER_4_280
*426 FILLER_4_287
*427 FILLER_4_294
*428 FILLER_4_301
*429 FILLER_4_308
*430 FILLER_4_315
*431 FILLER_4_322
*432 FILLER_4_329
*433 FILLER_4_336
*434 FILLER_4_343
*435 FILLER_4_350
*436 FILLER_4_357
*437 FILLER_4_364
*438 FILLER_4_371
*439 FILLER_4_378
*440 FILLER_4_385
*441 FILLER_4_392
*442 FILLER_4_399
*443 FILLER_4_406
*444 FILLER_4_413
*445 FILLER_4_420
*446 FILLER_4_427
*447 FILLER_4_429
*448 FILLER_5_0
*449 FILLER_5_7
*450 FILLER_5_14
*451 FILLER_5_21
*452 FILLER_5_28
*453 FILLER_5_35
*454 FILLER_5_42
*455 FILLER_5_49
*456 FILLER_5_56
*457 FILLER_5_63
*458 FILLER_5_70
*459 FILLER_5_77
*460 FILLER_5_84
*461 FILLER_5_91
*462 FILLER_5_98
*463 FILLER_5_105
*464 FILLER_5_112
*465 FILLER_5_119
*466 FILLER_5_126
*467 FILLER_5_133
*468 FILLER_5_140
*469 FILLER_5_147
*470 FILLER_5_154
*471 FILLER_5_161
*472 FILLER_5_168
*473 FILLER_5_175
*474 FILLER_5_182
*475 FILLER_5_189
*476 FILLER_5_196
*477 FILLER_5_203
*478 FILLER_5_210
*479 FILLER_5_217
*480 FILLER_5_224
*481 FILLER_5_231
*482 FILLER_5_238
*483 FILLER_5_245
*484 FILLER_5_252
*485 FILLER_5_259
*486 FILLER_5_266
*487 FILLER_5_273
*488 FILLER_5_280
*489 FILLER_5_287
*490 FILLER_5_294
*491 FILLER_5_301
*492 FILLER_5_308
*493 FILLER_5_315
*494 FILLER_5_322
*495 FILLER_5_329
*496 FILLER_5_336
*497 FILLER_5_343
*498 FILLER_5_350
*499 FILLER_5_357
*500 FILLER_5_364
*501 FILLER_5_371
*502 FILLER_5_378
*503 FILLER_5_385
*504 FILLER_5_392
*505 FILLER_5_399
*506 FILLER_5_406
*507 FILLER_5_413
*508 FILLER_5_420
*509 FILLER_5_427
*510 FILLER_5_429
*511 FILLER_6_0
*512 FILLER_6_7
*513 FILLER_6_14
*514 FILLER_6_21
*515 FILLER_6_28
*516 FILLER_6_35
*517 FILLER_6_42
*518 FILLER_6_49
*519 FILLER_6_56
*520 FILLER_6_63
*521 FILLER_6_70
*522 FILLER_6_77
*523 FILLER_6_84
*524 FILLER_6_91
*525 FILLER_6_98
*526 FILLER_6_105
*527 FILLER_6_112
*528 FILLER_6_119
*529 FILLER_6_126
*530 FILLER_6_133
*531 FILLER_6_140
*532 FILLER_6_147
*533 FILLER_6_154
*534 FILLER_6_161
*535 FILLER_6_168
*536 FILLER_6_175
*537 FILLER_6_182
*538 FILLER_6_189
*539 FILLER_6_196
*540 FILLER_6_203
*541 FILLER_6_210
*542 FILLER_6_217
*543 FILLER_6_224
*544 FILLER_6_231
*545 FILLER_6_238
*546 FILLER_6_245
*547 FILLER_6_252
*548 FILLER_6_259
*549 FILLER_6_266
*550 FILLER_6_273
*551 FILLER_6_280
*552 FILLER_6_287
*553 FILLER_6_294
*554 FILLER_6_301
*555 FILLER_6_308
*556 FILLER_6_315
*557 FILLER_6_322
*558 FILLER_6_329
*559 FILLER_6_336
*560 FILLER_6_343
*561 FILLER_6_350
*562 FILLER_6_357
*563 FILLER_6_364
*564 FILLER_6_371
*565 FILLER_6_378
*566 FILLER_6_385
*567 FILLER_6_392
*568 FILLER_6_399
*569 FILLER_6_406
*570 FILLER_6_413
*571 FILLER_6_420
*572 FILLER_6_427
*573 FILLER_6_429
*574 FILLER_7_0
*575 FILLER_7_7
*576 FILLER_7_14
*577 FILLER_7_21
*578 FILLER_7_28
*579 FILLER_7_35
*580 FILLER_7_42
*581 FILLER_7_49
*582 FILLER_7_56
*583 FILLER_7_63
*584 FILLER_7_70
*585 FILLER_7_77
*586 FILLER_7_84
*587 FILLER_7_91
*588 FILLER_7_98
*589 FILLER_7_105
*590 FILLER_7_112
*591 FILLER_7_119
*592 FILLER_7_126
*593 FILLER_7_133
*594 FILLER_7_140
*595 FILLER_7_147
*596 FILLER_7_154
*597 FILLER_7_161
*598 FILLER_7_168
*599 FILLER_7_175
*600 FILLER_7_182
*601 FILLER_7_189
*602 FILLER_7_196
*603 FILLER_7_203
*604 FILLER_7_210
*605 FILLER_7_217
*606 FILLER_7_224
*607 FILLER_7_231
*608 FILLER_7_238
*609 FILLER_7_245
*610 FILLER_7_252
*611 FILLER_7_259
*612 FILLER_7_266
*613 FILLER_7_273
*614 FILLER_7_280
*615 FILLER_7_287
*616 FILLER_7_294
*617 FILLER_7_301
*618 FILLER_7_308
*619 FILLER_7_315
*620 FILLER_7_322
*621 FILLER_7_329
*622 FILLER_7_336
*623 FILLER_7_343
*624 FILLER_7_350
*625 FILLER_7_357
*626 FILLER_7_364
*627 FILLER_7_371
*628 FILLER_7_378
*629 FILLER_7_385
*630 FILLER_7_392
*631 FILLER_7_399
*632 FILLER_7_406
*633 FILLER_7_413
*634 FILLER_7_420
*635 FILLER_7_427
*636 FILLER_7_429
*637 FILLER_8_0
*638 FILLER_8_7
*639 FILLER_8_14
*640 FILLER_8_21
*641 FILLER_8_28
*642 FILLER_8_35
*643 FILLER_8_42
*644 FILLER_8_49
*645 FILLER_8_56
*646 FILLER_8_63
*647 FILLER_8_70
*648 FILLER_8_77
*649 FILLER_8_84
*650 FILLER_8_91
*651 FILLER_8_98
*652 FILLER_8_105
*653 FILLER_8_112
*654 FILLER_8_119
*655 FILLER_8_126
*656 FILLER_8_133
*657 FILLER_8_140
*658 FILLER_8_147
*659 FILLER_8_154
*660 FILLER_8_161
*661 FILLER_8_168
*662 FILLER_8_175
*663 FILLER_8_182
*664 FILLER_8_189
*665 FILLER_8_196
*666 FILLER_8_203
*667 FILLER_8_210
*668 FILLER_8_217
*669 FILLER_8_224
*670 FILLER_8_231
*671 FILLER_8_238
*672 FILLER_8_245
*673 FILLER_8_252
*674 FILLER_8_259
*675 FILLER_8_266
*676 FILLER_8_273
*677 FILLER_8_280
*678 FILLER_8_287
*679 FILLER_8_294
*680 FILLER_8_301
*681 FILLER_8_308
*682 FILLER_8_315
*683 FILLER_8_322
*684 FILLER_8_329
*685 FILLER_8_336
*686 FILLER_8_343
*687 FILLER_8_350
*688 FILLER_8_357
*689 FILLER_8_364
*690 FILLER_8_371
*691 FILLER_8_378
*692 FILLER_8_385
*693 FILLER_8_392
*694 FILLER_8_399
*695 FILLER_8_406
*696 FILLER_8_413
*697 FILLER_8_420
*698 FILLER_8_427
*699 FILLER_8_429
*700 FILLER_9_0
*701 FILLER_9_7
*702 FILLER_9_14
*703 FILLER_9_21
*704 FILLER_9_28
*705 FILLER_9_35
*706 FILLER_9_42
*707 FILLER_9_49
*708 FILLER_9_56
*709 FILLER_9_63
*710 FILLER_9_70
*711 FILLER_9_77
*712 FILLER_9_84
*713 FILLER_9_91
*714 FILLER_9_98
*715 FILLER_9_105
*716 FILLER_9_112
*717 FILLER_9_119
*718 FILLER_9_126
*719 FILLER_9_133
*720 FILLER_9_140
*721 FILLER_9_147
*722 FILLER_9_154
*723 FILLER_9_161
*724 FILLER_9_168
*725 FILLER_9_175
*726 FILLER_9_182
*727 FILLER_9_189
*728 FILLER_9_196
*729 FILLER_9_203
*730 FILLER_9_210
*731 FILLER_9_217
*732 FILLER_9_224
*733 FILLER_9_231
*734 FILLER_9_238
*735 FILLER_9_245
*736 FILLER_9_252
*737 FILLER_9_259
*738 FILLER_9_266
*739 FILLER_9_273
*740 FILLER_9_280
*741 FILLER_9_287
*742 FILLER_9_294
*743 FILLER_9_301
*744 FILLER_9_308
*745 FILLER_9_315
*746 FILLER_9_322
*747 FILLER_9_329
*748 FILLER_9_336
*749 FILLER_9_343
*750 FILLER_9_350
*751 FILLER_9_357
*752 FILLER_9_364
*753 FILLER_9_371
*754 FILLER_9_378
*755 FILLER_9_385
*756 FILLER_9_392
*757 FILLER_9_399
*758 FILLER_9_406
*759 FILLER_9_413
*760 FILLER_9_420
*761 FILLER_9_427
*762 FILLER_9_429
*763 FILLER_10_0
*764 FILLER_10_7
*765 FILLER_10_14
*766 FILLER_10_21
*767 FILLER_10_28
*768 FILLER_10_35
*769 FILLER_10_42
*770 FILLER_10_49
*771 FILLER_10_56
*772 FILLER_10_63
*773 FILLER_10_70
*774 FILLER_10_77
*775 FILLER_10_84
*776 FILLER_10_91
*777 FILLER_10_98
*778 FILLER_10_105
*779 FILLER_10_112
*780 FILLER_10_119
*781 FILLER_10_126
*782 FILLER_10_133
*783 FILLER_10_140
*784 FILLER_10_147
*785 FILLER_10_154
*786 FILLER_10_161
*787 FILLER_10_168
*788 FILLER_10_175
*789 FILLER_10_182
*790 FILLER_10_189
*791 FILLER_10_196
*792 FILLER_10_203
*793 FILLER_10_210
*794 FILLER_10_217
*795 FILLER_10_224
*796 FILLER_10_231
*797 FILLER_10_238
*798 FILLER_10_245
*799 FILLER_10_252
*800 FILLER_10_259
*801 FILLER_10_266
*802 FILLER_10_273
*803 FILLER_10_280
*804 FILLER_10_287
*805 FILLER_10_294
*806 FILLER_10_301
*807 FILLER_10_308
*808 FILLER_10_315
*809 FILLER_10_322
*810 FILLER_10_329
*811 FILLER_10_336
*812 FILLER_10_343
*813 FILLER_10_350
*814 FILLER_10_357
*815 FILLER_10_364
*816 FILLER_10_371
*817 FILLER_10_378
*818 FILLER_10_385
*819 FILLER_10_392
*820 FILLER_10_399
*821 FILLER_10_406
*822 FILLER_10_413
*823 FILLER_10_420
*824 FILLER_10_427
*825 FILLER_10_429
*826 FILLER_11_0
*827 FILLER_11_7
*828 FILLER_11_14
*829 FILLER_11_21
*830 FILLER_11_28
*831 FILLER_11_35
*832 FILLER_11_42
*833 FILLER_11_49
*834 FILLER_11_56
*835 FILLER_11_63
*836 FILLER_11_70
*837 FILLER_11_77
*838 FILLER_11_84
*839 FILLER_11_91
*840 FILLER_11_98
*841 FILLER_11_105
*842 FILLER_11_112
*843 FILLER_11_119
*844 FILLER_11_126
*845 FILLER_11_133
*846 FILLER_11_140
*847 FILLER_11_147
*848 FILLER_11_154
*849 FILLER_11_161
*850 FILLER_11_168
*851 FILLER_11_175
*852 FILLER_11_182
*853 FILLER_11_189
*854 FILLER_11_196
*855 FILLER_11_203
*856 FILLER_11_210
*857 FILLER_11_217
*858 FILLER_11_224
*859 FILLER_11_231
*860 FILLER_11_238
*861 FILLER_11_245
*862 FILLER_11_252
*863 FILLER_11_259
*864 FILLER_11_266
*865 FILLER_11_273
*866 FILLER_11_280
*867 FILLER_11_287
*868 FILLER_11_294
*869 FILLER_11_301
*870 FILLER_11_308
*871 FILLER_11_315
*872 FILLER_11_322
*873 FILLER_11_329
*874 FILLER_11_336
*875 FILLER_11_343
*876 FILLER_11_350
*877 FILLER_11_357
*878 FILLER_11_364
*879 FILLER_11_371
*880 FILLER_11_378
*881 FILLER_11_385
*882 FILLER_11_392
*883 FILLER_11_399
*884 FILLER_11_406
*885 FILLER_11_413
*886 FILLER_11_420
*887 FILLER_11_427
*888 FILLER_11_429
*889 FILLER_12_0
*890 FILLER_12_7
*891 FILLER_12_14
*892 FILLER_12_21
*893 FILLER_12_28
*894 FILLER_12_35
*895 FILLER_12_42
*896 FILLER_12_49
*897 FILLER_12_56
*898 FILLER_12_63
*899 FILLER_12_70
*900 FILLER_12_77
*901 FILLER_12_84
*902 FILLER_12_91
*903 FILLER_12_98
*904 FILLER_12_105
*905 FILLER_12_112
*906 FILLER_12_119
*907 FILLER_12_126
*908 FILLER_12_133
*909 FILLER_12_140
*910 FILLER_12_147
*911 FILLER_12_154
*912 FILLER_12_161
*913 FILLER_12_168
*914 FILLER_12_175
*915 FILLER_12_182
*916 FILLER_12_189
*917 FILLER_12_196
*918 FILLER_12_203
*919 FILLER_12_210
*920 FILLER_12_217
*921 FILLER_12_224
*922 FILLER_12_231
*923 FILLER_12_238
*924 FILLER_12_245
*925 FILLER_12_252
*926 FILLER_12_259
*927 FILLER_12_266
*928 FILLER_12_273
*929 FILLER_12_280
*930 FILLER_12_287
*931 FILLER_12_294
*932 FILLER_12_301
*933 FILLER_12_308
*934 FILLER_12_315
*935 FILLER_12_322
*936 FILLER_12_329
*937 FILLER_12_336
*938 FILLER_12_343
*939 FILLER_12_350
*940 FILLER_12_357
*941 FILLER_12_364
*942 FILLER_12_371
*943 FILLER_12_378
*944 FILLER_12_385
*945 FILLER_12_392
*946 FILLER_12_399
*947 FILLER_12_406
*948 FILLER_12_413
*949 FILLER_12_420
*950 FILLER_12_427
*951 FILLER_12_429
*952 FILLER_13_0
*953 FILLER_13_7
*954 FILLER_13_14
*955 FILLER_13_21
*956 FILLER_13_28
*957 FILLER_13_35
*958 FILLER_13_42
*959 FILLER_13_49
*960 FILLER_13_56
*961 FILLER_13_63
*962 FILLER_13_70
*963 FILLER_13_77
*964 FILLER_13_84
*965 FILLER_13_91
*966 FILLER_13_98
*967 FILLER_13_105
*968 FILLER_13_112
*969 FILLER_13_119
*970 FILLER_13_126
*971 FILLER_13_133
*972 FILLER_13_140
*973 FILLER_13_147
*974 FILLER_13_154
*975 FILLER_13_161
*976 FILLER_13_168
*977 FILLER_13_175
*978 FILLER_13_182
*979 FILLER_13_189
*980 FILLER_13_196
*981 FILLER_13_203
*982 FILLER_13_210
*983 FILLER_13_217
*984 FILLER_13_224
*985 FILLER_13_231
*986 FILLER_13_238
*987 FILLER_13_245
*988 FILLER_13_252
*989 FILLER_13_259
*990 FILLER_13_266
*991 FILLER_13_273
*992 FILLER_13_280
*993 FILLER_13_287
*994 FILLER_13_294
*995 FILLER_13_301
*996 FILLER_13_308
*997 FILLER_13_315
*998 FILLER_13_322
*999 FILLER_13_329
*1000 FILLER_13_336
*1001 FILLER_13_343
*1002 FILLER_13_350
*1003 FILLER_13_357
*1004 FILLER_13_364
*1005 FILLER_13_371
*1006 FILLER_13_378
*1007 FILLER_13_385
*1008 FILLER_13_392
*1009 FILLER_13_399
*1010 FILLER_13_406
*1011 FILLER_13_413
*1012 FILLER_13_420
*1013 FILLER_13_427
*1014 FILLER_13_429
*1015 FILLER_14_0
*1016 FILLER_14_7
*1017 FILLER_14_14
*1018 FILLER_14_21
*1019 FILLER_14_28
*1020 FILLER_14_35
*1021 FILLER_14_42
*1022 FILLER_14_49
*1023 FILLER_14_56
*1024 FILLER_14_63
*1025 FILLER_14_70
*1026 FILLER_14_77
*1027 FILLER_14_84
*1028 FILLER_14_91
*1029 FILLER_14_98
*1030 FILLER_14_105
*1031 FILLER_14_112
*1032 FILLER_14_119
*1033 FILLER_14_126
*1034 FILLER_14_133
*1035 FILLER_14_140
*1036 FILLER_14_147
*1037 FILLER_14_154
*1038 FILLER_14_161
*1039 FILLER_14_168
*1040 FILLER_14_175
*1041 FILLER_14_182
*1042 FILLER_14_189
*1043 FILLER_14_196
*1044 FILLER_14_203
*1045 FILLER_14_210
*1046 FILLER_14_217
*1047 FILLER_14_224
*1048 FILLER_14_231
*1049 FILLER_14_238
*1050 FILLER_14_245
*1051 FILLER_14_252
*1052 FILLER_14_259
*1053 FILLER_14_266
*1054 FILLER_14_273
*1055 FILLER_14_280
*1056 FILLER_14_287
*1057 FILLER_14_294
*1058 FILLER_14_301
*1059 FILLER_14_308
*1060 FILLER_14_315
*1061 FILLER_14_322
*1062 FILLER_14_329
*1063 FILLER_14_336
*1064 FILLER_14_343
*1065 FILLER_14_350
*1066 FILLER_14_357
*1067 FILLER_14_364
*1068 FILLER_14_371
*1069 FILLER_14_378
*1070 FILLER_14_385
*1071 FILLER_14_392
*1072 FILLER_14_399
*1073 FILLER_14_406
*1074 FILLER_14_413
*1075 FILLER_14_420
*1076 FILLER_14_427
*1077 FILLER_14_429
*1078 FILLER_15_0
*1079 FILLER_15_7
*1080 FILLER_15_14
*1081 FILLER_15_21
*1082 FILLER_15_28
*1083 FILLER_15_35
*1084 FILLER_15_42
*1085 FILLER_15_49
*1086 FILLER_15_56
*1087 FILLER_15_63
*1088 FILLER_15_70
*1089 FILLER_15_77
*1090 FILLER_15_84
*1091 FILLER_15_91
*1092 FILLER_15_98
*1093 FILLER_15_105
*1094 FILLER_15_112
*1095 FILLER_15_119
*1096 FILLER_15_126
*1097 FILLER_15_133
*1098 FILLER_15_140
*1099 FILLER_15_147
*1100 FILLER_15_154
*1101 FILLER_15_161
*1102 FILLER_15_168
*1103 FILLER_15_175
*1104 FILLER_15_182
*1105 FILLER_15_189
*1106 FILLER_15_196
*1107 FILLER_15_203
*1108 FILLER_15_210
*1109 FILLER_15_217
*1110 FILLER_15_224
*1111 FILLER_15_231
*1112 FILLER_15_238
*1113 FILLER_15_245
*1114 FILLER_15_252
*1115 FILLER_15_259
*1116 FILLER_15_266
*1117 FILLER_15_273
*1118 FILLER_15_280
*1119 FILLER_15_287
*1120 FILLER_15_294
*1121 FILLER_15_301
*1122 FILLER_15_308
*1123 FILLER_15_315
*1124 FILLER_15_322
*1125 FILLER_15_329
*1126 FILLER_15_336
*1127 FILLER_15_343
*1128 FILLER_15_350
*1129 FILLER_15_357
*1130 FILLER_15_364
*1131 FILLER_15_371
*1132 FILLER_15_378
*1133 FILLER_15_385
*1134 FILLER_15_392
*1135 FILLER_15_399
*1136 FILLER_15_406
*1137 FILLER_15_413
*1138 FILLER_15_420
*1139 FILLER_15_427
*1140 FILLER_15_429
*1141 FILLER_16_0
*1142 FILLER_16_7
*1143 FILLER_16_14
*1144 FILLER_16_21
*1145 FILLER_16_28
*1146 FILLER_16_35
*1147 FILLER_16_42
*1148 FILLER_16_49
*1149 FILLER_16_56
*1150 FILLER_16_63
*1151 FILLER_16_70
*1152 FILLER_16_77
*1153 FILLER_16_84
*1154 FILLER_16_91
*1155 FILLER_16_98
*1156 FILLER_16_105
*1157 FILLER_16_112
*1158 FILLER_16_119
*1159 FILLER_16_126
*1160 FILLER_16_133
*1161 FILLER_16_140
*1162 FILLER_16_147
*1163 FILLER_16_154
*1164 FILLER_16_161
*1165 FILLER_16_168
*1166 FILLER_16_175
*1167 FILLER_16_182
*1168 FILLER_16_189
*1169 FILLER_16_196
*1170 FILLER_16_203
*1171 FILLER_16_210
*1172 FILLER_16_217
*1173 FILLER_16_224
*1174 FILLER_16_231
*1175 FILLER_16_238
*1176 FILLER_16_245
*1177 FILLER_16_252
*1178 FILLER_16_259
*1179 FILLER_16_266
*1180 FILLER_16_273
*1181 FILLER_16_280
*1182 FILLER_16_287
*1183 FILLER_16_294
*1184 FILLER_16_301
*1185 FILLER_16_308
*1186 FILLER_16_315
*1187 FILLER_16_322
*1188 FILLER_16_329
*1189 FILLER_16_336
*1190 FILLER_16_343
*1191 FILLER_16_350
*1192 FILLER_16_357
*1193 FILLER_16_364
*1194 FILLER_16_371
*1195 FILLER_16_378
*1196 FILLER_16_385
*1197 FILLER_16_392
*1198 FILLER_16_399
*1199 FILLER_16_406
*1200 FILLER_16_413
*1201 FILLER_16_420
*1202 FILLER_16_427
*1203 FILLER_16_429
*1204 FILLER_17_0
*1205 FILLER_17_7
*1206 FILLER_17_14
*1207 FILLER_17_21
*1208 FILLER_17_28
*1209 FILLER_17_35
*1210 FILLER_17_42
*1211 FILLER_17_49
*1212 FILLER_17_56
*1213 FILLER_17_63
*1214 FILLER_17_70
*1215 FILLER_17_77
*1216 FILLER_17_84
*1217 FILLER_17_91
*1218 FILLER_17_98
*1219 FILLER_17_105
*1220 FILLER_17_112
*1221 FILLER_17_119
*1222 FILLER_17_126
*1223 FILLER_17_133
*1224 FILLER_17_140
*1225 FILLER_17_147
*1226 FILLER_17_154
*1227 FILLER_17_161
*1228 FILLER_17_168
*1229 FILLER_17_175
*1230 FILLER_17_182
*1231 FILLER_17_189
*1232 FILLER_17_196
*1233 FILLER_17_203
*1234 FILLER_17_210
*1235 FILLER_17_217
*1236 FILLER_17_224
*1237 FILLER_17_231
*1238 FILLER_17_238
*1239 FILLER_17_245
*1240 FILLER_17_252
*1241 FILLER_17_259
*1242 FILLER_17_266
*1243 FILLER_17_273
*1244 FILLER_17_280
*1245 FILLER_17_287
*1246 FILLER_17_294
*1247 FILLER_17_301
*1248 FILLER_17_308
*1249 FILLER_17_315
*1250 FILLER_17_322
*1251 FILLER_17_329
*1252 FILLER_17_336
*1253 FILLER_17_343
*1254 FILLER_17_350
*1255 FILLER_17_357
*1256 FILLER_17_364
*1257 FILLER_17_371
*1258 FILLER_17_378
*1259 FILLER_17_385
*1260 FILLER_17_392
*1261 FILLER_17_399
*1262 FILLER_17_406
*1263 FILLER_17_413
*1264 FILLER_17_420
*1265 FILLER_17_427
*1266 FILLER_17_429
*1267 FILLER_18_0
*1268 FILLER_18_7
*1269 FILLER_18_14
*1270 FILLER_18_21
*1271 FILLER_18_28
*1272 FILLER_18_35
*1273 FILLER_18_42
*1274 FILLER_18_49
*1275 FILLER_18_56
*1276 FILLER_18_63
*1277 FILLER_18_70
*1278 FILLER_18_77
*1279 FILLER_18_84
*1280 FILLER_18_91
*1281 FILLER_18_98
*1282 FILLER_18_105
*1283 FILLER_18_112
*1284 FILLER_18_119
*1285 FILLER_18_126
*1286 FILLER_18_133
*1287 FILLER_18_140
*1288 FILLER_18_147
*1289 FILLER_18_154
*1290 FILLER_18_161
*1291 FILLER_18_168
*1292 FILLER_18_175
*1293 FILLER_18_182
*1294 FILLER_18_189
*1295 FILLER_18_196
*1296 FILLER_18_203
*1297 FILLER_18_210
*1298 FILLER_18_217
*1299 FILLER_18_224
*1300 FILLER_18_231
*1301 FILLER_18_238
*1302 FILLER_18_245
*1303 FILLER_18_252
*1304 FILLER_18_259
*1305 FILLER_18_266
*1306 FILLER_18_273
*1307 FILLER_18_280
*1308 FILLER_18_287
*1309 FILLER_18_294
*1310 FILLER_18_301
*1311 FILLER_18_308
*1312 FILLER_18_315
*1313 FILLER_18_322
*1314 FILLER_18_329
*1315 FILLER_18_336
*1316 FILLER_18_343
*1317 FILLER_18_350
*1318 FILLER_18_357
*1319 FILLER_18_364
*1320 FILLER_18_371
*1321 FILLER_18_378
*1322 FILLER_18_385
*1323 FILLER_18_392
*1324 FILLER_18_399
*1325 FILLER_18_406
*1326 FILLER_18_413
*1327 FILLER_18_420
*1328 FILLER_18_427
*1329 FILLER_18_429
*1330 FILLER_19_0
*1331 FILLER_19_7
*1332 FILLER_19_14
*1333 FILLER_19_21
*1334 FILLER_19_28
*1335 FILLER_19_35
*1336 FILLER_19_42
*1337 FILLER_19_49
*1338 FILLER_19_56
*1339 FILLER_19_63
*1340 FILLER_19_70
*1341 FILLER_19_77
*1342 FILLER_19_84
*1343 FILLER_19_91
*1344 FILLER_19_98
*1345 FILLER_19_105
*1346 FILLER_19_112
*1347 FILLER_19_119
*1348 FILLER_19_126
*1349 FILLER_19_133
*1350 FILLER_19_140
*1351 FILLER_19_147
*1352 FILLER_19_154
*1353 FILLER_19_161
*1354 FILLER_19_168
*1355 FILLER_19_175
*1356 FILLER_19_182
*1357 FILLER_19_189
*1358 FILLER_19_196
*1359 FILLER_19_203
*1360 FILLER_19_210
*1361 FILLER_19_217
*1362 FILLER_19_224
*1363 FILLER_19_231
*1364 FILLER_19_238
*1365 FILLER_19_245
*1366 FILLER_19_252
*1367 FILLER_19_259
*1368 FILLER_19_266
*1369 FILLER_19_273
*1370 FILLER_19_280
*1371 FILLER_19_287
*1372 FILLER_19_294
*1373 FILLER_19_301
*1374 FILLER_19_308
*1375 FILLER_19_315
*1376 FILLER_19_322
*1377 FILLER_19_329
*1378 FILLER_19_336
*1379 FILLER_19_343
*1380 FILLER_19_350
*1381 FILLER_19_357
*1382 FILLER_19_364
*1383 FILLER_19_371
*1384 FILLER_19_378
*1385 FILLER_19_385
*1386 FILLER_19_392
*1387 FILLER_19_399
*1388 FILLER_19_406
*1389 FILLER_19_413
*1390 FILLER_19_420
*1391 FILLER_19_427
*1392 FILLER_19_429
*1393 FILLER_20_0
*1394 FILLER_20_7
*1395 FILLER_20_14
*1396 FILLER_20_21
*1397 FILLER_20_28
*1398 FILLER_20_35
*1399 FILLER_20_42
*1400 FILLER_20_49
*1401 FILLER_20_56
*1402 FILLER_20_63
*1403 FILLER_20_70
*1404 FILLER_20_77
*1405 FILLER_20_84
*1406 FILLER_20_91
*1407 FILLER_20_98
*1408 FILLER_20_105
*1409 FILLER_20_112
*1410 FILLER_20_119
*1411 FILLER_20_126
*1412 FILLER_20_133
*1413 FILLER_20_140
*1414 FILLER_20_147
*1415 FILLER_20_154
*1416 FILLER_20_161
*1417 FILLER_20_168
*1418 FILLER_20_175
*1419 FILLER_20_182
*1420 FILLER_20_189
*1421 FILLER_20_196
*1422 FILLER_20_203
*1423 FILLER_20_210
*1424 FILLER_20_217
*1425 FILLER_20_224
*1426 FILLER_20_231
*1427 FILLER_20_238
*1428 FILLER_20_245
*1429 FILLER_20_252
*1430 FILLER_20_259
*1431 FILLER_20_266
*1432 FILLER_20_273
*1433 FILLER_20_280
*1434 FILLER_20_287
*1435 FILLER_20_294
*1436 FILLER_20_301
*1437 FILLER_20_308
*1438 FILLER_20_315
*1439 FILLER_20_322
*1440 FILLER_20_329
*1441 FILLER_20_336
*1442 FILLER_20_343
*1443 FILLER_20_350
*1444 FILLER_20_357
*1445 FILLER_20_364
*1446 FILLER_20_371
*1447 FILLER_20_378
*1448 FILLER_20_385
*1449 FILLER_20_392
*1450 FILLER_20_399
*1451 FILLER_20_406
*1452 FILLER_20_413
*1453 FILLER_20_420
*1454 FILLER_20_427
*1455 FILLER_20_429
*1456 FILLER_21_0
*1457 FILLER_21_7
*1458 FILLER_21_14
*1459 FILLER_21_21
*1460 FILLER_21_28
*1461 FILLER_21_35
*1462 FILLER_21_42
*1463 FILLER_21_49
*1464 FILLER_21_56
*1465 FILLER_21_63
*1466 FILLER_21_70
*1467 FILLER_21_77
*1468 FILLER_21_84
*1469 FILLER_21_91
*1470 FILLER_21_98
*1471 FILLER_21_105
*1472 FILLER_21_112
*1473 FILLER_21_119
*1474 FILLER_21_126
*1475 FILLER_21_133
*1476 FILLER_21_140
*1477 FILLER_21_147
*1478 FILLER_21_154
*1479 FILLER_21_161
*1480 FILLER_21_168
*1481 FILLER_21_175
*1482 FILLER_21_182
*1483 FILLER_21_189
*1484 FILLER_21_196
*1485 FILLER_21_203
*1486 FILLER_21_210
*1487 FILLER_21_217
*1488 FILLER_21_224
*1489 FILLER_21_231
*1490 FILLER_21_238
*1491 FILLER_21_245
*1492 FILLER_21_252
*1493 FILLER_21_259
*1494 FILLER_21_266
*1495 FILLER_21_273
*1496 FILLER_21_280
*1497 FILLER_21_287
*1498 FILLER_21_294
*1499 FILLER_21_301
*1500 FILLER_21_308
*1501 FILLER_21_315
*1502 FILLER_21_322
*1503 FILLER_21_329
*1504 FILLER_21_336
*1505 FILLER_21_343
*1506 FILLER_21_350
*1507 FILLER_21_357
*1508 FILLER_21_364
*1509 FILLER_21_371
*1510 FILLER_21_378
*1511 FILLER_21_385
*1512 FILLER_21_392
*1513 FILLER_21_399
*1514 FILLER_21_406
*1515 FILLER_21_413
*1516 FILLER_21_420
*1517 FILLER_21_427
*1518 FILLER_21_429
*1519 FILLER_22_0
*1520 FILLER_22_7
*1521 FILLER_22_14
*1522 FILLER_22_21
*1523 FILLER_22_28
*1524 FILLER_22_35
*1525 FILLER_22_42
*1526 FILLER_22_49
*1527 FILLER_22_56
*1528 FILLER_22_63
*1529 FILLER_22_70
*1530 FILLER_22_77
*1531 FILLER_22_84
*1532 FILLER_22_91
*1533 FILLER_22_98
*1534 FILLER_22_105
*1535 FILLER_22_112
*1536 FILLER_22_119
*1537 FILLER_22_126
*1538 FILLER_22_133
*1539 FILLER_22_140
*1540 FILLER_22_147
*1541 FILLER_22_154
*1542 FILLER_22_161
*1543 FILLER_22_168
*1544 FILLER_22_175
*1545 FILLER_22_182
*1546 FILLER_22_189
*1547 FILLER_22_196
*1548 FILLER_22_203
*1549 FILLER_22_210
*1550 FILLER_22_217
*1551 FILLER_22_224
*1552 FILLER_22_231
*1553 FILLER_22_238
*1554 FILLER_22_245
*1555 FILLER_22_252
*1556 FILLER_22_259
*1557 FILLER_22_266
*1558 FILLER_22_273
*1559 FILLER_22_280
*1560 FILLER_22_287
*1561 FILLER_22_294
*1562 FILLER_22_301
*1563 FILLER_22_308
*1564 FILLER_22_315
*1565 FILLER_22_322
*1566 FILLER_22_329
*1567 FILLER_22_336
*1568 FILLER_22_343
*1569 FILLER_22_350
*1570 FILLER_22_357
*1571 FILLER_22_364
*1572 FILLER_22_371
*1573 FILLER_22_378
*1574 FILLER_22_385
*1575 FILLER_22_392
*1576 FILLER_22_399
*1577 FILLER_22_406
*1578 FILLER_22_413
*1579 FILLER_22_420
*1580 FILLER_22_427
*1581 FILLER_22_429
*1582 FILLER_23_0
*1583 FILLER_23_7
*1584 FILLER_23_14
*1585 FILLER_23_21
*1586 FILLER_23_28
*1587 FILLER_23_35
*1588 FILLER_23_42
*1589 FILLER_23_49
*1590 FILLER_23_56
*1591 FILLER_23_63
*1592 FILLER_23_70
*1593 FILLER_23_77
*1594 FILLER_23_84
*1595 FILLER_23_91
*1596 FILLER_23_98
*1597 FILLER_23_105
*1598 FILLER_23_112
*1599 FILLER_23_119
*1600 FILLER_23_126
*1601 FILLER_23_133
*1602 FILLER_23_140
*1603 FILLER_23_147
*1604 FILLER_23_154
*1605 FILLER_23_161
*1606 FILLER_23_168
*1607 FILLER_23_175
*1608 FILLER_23_182
*1609 FILLER_23_189
*1610 FILLER_23_196
*1611 FILLER_23_203
*1612 FILLER_23_210
*1613 FILLER_23_217
*1614 FILLER_23_224
*1615 FILLER_23_231
*1616 FILLER_23_238
*1617 FILLER_23_245
*1618 FILLER_23_252
*1619 FILLER_23_259
*1620 FILLER_23_266
*1621 FILLER_23_273
*1622 FILLER_23_280
*1623 FILLER_23_287
*1624 FILLER_23_294
*1625 FILLER_23_301
*1626 FILLER_23_308
*1627 FILLER_23_315
*1628 FILLER_23_322
*1629 FILLER_23_329
*1630 FILLER_23_336
*1631 FILLER_23_343