*SPEF "ieee 1481-1999"
*DESIGN "tt_um_one_bit_puf_wrapper"
*DATE "00:30:42 Monday November 04, 2024"
*VENDOR "The OpenROAD Project"
*PROGRAM "OpenROAD"
*VERSION "v2.0-16649-g40811f37f"
*DESIGN_FLOW "NAME_SCOPE LOCAL" "PIN_CAP NONE"
*DIVIDER /
*DELIMITER :
*BUS_DELIMITER []
*T_UNIT 1 NS
*C_UNIT 1 PF
*R_UNIT 1 OHM
*L_UNIT 1 HENRY

*NAME_MAP
*1 _00_
*2 _01_
*3 _02_
*5 net27
*6 clk
*7 ena
*8 one_bit_out
*9 puf_instance\.Q0
*10 puf_instance\.Q1
*11 rst_n
*12 ui_in[0]
*13 ui_in[1]
*14 ui_in[2]
*15 ui_in[3]
*16 ui_in[4]
*17 ui_in[5]
*18 ui_in[6]
*19 ui_in[7]
*20 uio_in[0]
*21 uio_in[1]
*22 uio_in[2]
*23 uio_in[3]
*24 uio_in[4]
*25 uio_in[5]
*26 uio_in[6]
*27 uio_in[7]
*28 uio_oe[0]
*29 uio_oe[1]
*30 uio_oe[2]
*31 uio_oe[3]
*32 uio_oe[4]
*33 uio_oe[5]
*34 uio_oe[6]
*35 uio_oe[7]
*36 uio_out[0]
*37 uio_out[1]
*38 uio_out[2]
*39 uio_out[3]
*40 uio_out[4]
*41 uio_out[5]
*42 uio_out[6]
*43 uio_out[7]
*44 uo_out[0]
*45 uo_out[1]
*46 uo_out[2]
*47 uo_out[3]
*48 uo_out[4]
*49 uo_out[5]
*50 uo_out[6]
*51 uo_out[7]
*54 net1
*55 net2
*56 net3
*57 net4
*58 net5
*59 net6
*60 net7
*61 net8
*62 net9
*63 net10
*64 net11
*65 net12
*66 net13
*67 net14
*68 net15
*69 net16
*70 net17
*71 net18
*72 net19
*73 net20
*74 net21
*75 net22
*76 net23
*77 net24
*78 net25
*79 net26
*80 net28
*81 _05_
*82 _06_
*83 _07_
*84 _08_
*85 FILLER_0_0
*86 puf_instance\.dl0\.Q\$_DLATCH_N_\._TECHMAP_DLATCH_N_27
*87 _11_
*88 _12_
*89 _13_
*90 _14_
*91 _15_
*92 _16_
*93 _17_
*94 _18_
*95 _19_
*96 _20_
*97 _21_
*98 _22_
*99 _23_
*100 _24_
*101 _25_
*102 _26_
*103 _27_
*104 _28_
*105 _29_
*106 _30_
*107 _31_
*108 _32_
*109 _33_
*110 _34_
*111 puf_instance\.dl0\.Q\$_DLATCH_N_\._TECHMAP_DLATCH_N
*112 puf_instance\.dl1\.Q\$_DLATCH_N_\._TECHMAP_DLATCH_N
*113 input1
*114 input2
*115 output3
*116 _11__4
*117 _12__5
*118 _13__6
*119 _14__7
*120 _15__8
*121 _16__9
*122 _17__10
*123 _18__11
*124 _19__12
*125 _20__13
*126 _21__14
*127 _22__15
*128 _23__16
*129 _24__17
*130 _25__18
*131 _26__19
*132 _28__20
*133 _29__21
*134 _30__22
*135 _31__23
*136 _32__24
*137 _33__25
*138 _34__26
*139 puf_instance\.dl1\.Q\$_DLATCH_N_\._TECHMAP_DLATCH_N_28
*140 FILLER_0_7
*141 FILLER_0_14
*142 FILLER_0_21
*143 FILLER_0_28
*144 FILLER_0_35
*145 FILLER_0_42
*146 FILLER_0_49
*147 FILLER_0_56
*148 FILLER_0_63
*149 FILLER_0_70
*150 FILLER_0_77
*151 FILLER_0_84
*152 FILLER_0_91
*153 FILLER_0_98
*154 FILLER_0_105
*155 FILLER_0_112
*156 FILLER_0_119
*157 FILLER_0_126
*158 FILLER_0_133
*159 FILLER_0_140
*160 FILLER_0_147
*161 FILLER_0_154
*162 FILLER_0_161
*163 FILLER_0_168
*164 FILLER_0_175
*165 FILLER_0_182
*166 FILLER_0_189
*167 FILLER_0_196
*168 FILLER_0_203
*169 FILLER_0_210
*170 FILLER_0_217
*171 FILLER_0_224
*172 FILLER_0_231
*173 FILLER_0_238
*174 FILLER_0_245
*175 FILLER_0_252
*176 FILLER_0_259
*177 FILLER_0_266
*178 FILLER_0_273
*179 FILLER_0_280
*180 FILLER_0_287
*181 FILLER_0_294
*182 FILLER_0_301
*183 FILLER_0_308
*184 FILLER_0_315
*185 FILLER_0_322
*186 FILLER_0_329
*187 FILLER_0_336
*188 FILLER_0_343
*189 FILLER_0_350
*190 FILLER_0_357
*191 FILLER_0_364
*192 FILLER_0_371
*193 FILLER_0_378
*194 FILLER_0_385
*195 FILLER_0_392
*196 FILLER_0_399
*197 FILLER_0_406
*198 FILLER_0_413
*199 FILLER_0_420
*200 FILLER_0_427
*201 FILLER_0_429
*202 FILLER_1_0
*203 FILLER_1_7
*204 FILLER_1_14
*205 FILLER_1_21
*206 FILLER_1_28
*207 FILLER_1_35
*208 FILLER_1_42
*209 FILLER_1_49
*210 FILLER_1_56
*211 FILLER_1_63
*212 FILLER_1_70
*213 FILLER_1_77
*214 FILLER_1_84
*215 FILLER_1_91
*216 FILLER_1_98
*217 FILLER_1_105
*218 FILLER_1_112
*219 FILLER_1_119
*220 FILLER_1_126
*221 FILLER_1_133
*222 FILLER_1_140
*223 FILLER_1_147
*224 FILLER_1_154
*225 FILLER_1_161
*226 FILLER_1_168
*227 FILLER_1_175
*228 FILLER_1_182
*229 FILLER_1_189
*230 FILLER_1_196
*231 FILLER_1_203
*232 FILLER_1_210
*233 FILLER_1_217
*234 FILLER_1_224
*235 FILLER_1_231
*236 FILLER_1_238
*237 FILLER_1_245
*238 FILLER_1_252
*239 FILLER_1_259
*240 FILLER_1_266
*241 FILLER_1_273
*242 FILLER_1_280
*243 FILLER_1_287
*244 FILLER_1_294
*245 FILLER_1_301
*246 FILLER_1_308
*247 FILLER_1_315
*248 FILLER_1_322
*249 FILLER_1_329
*250 FILLER_1_336
*251 FILLER_1_343
*252 FILLER_1_350
*253 FILLER_1_357
*254 FILLER_1_364
*255 FILLER_1_371
*256 FILLER_1_378
*257 FILLER_1_385
*258 FILLER_1_392
*259 FILLER_1_399
*260 FILLER_1_406
*261 FILLER_1_413
*262 FILLER_1_420
*263 FILLER_1_427
*264 FILLER_1_429
*265 FILLER_2_0
*266 FILLER_2_7
*267 FILLER_2_14
*268 FILLER_2_21
*269 FILLER_2_28
*270 FILLER_2_35
*271 FILLER_2_42
*272 FILLER_2_49
*273 FILLER_2_56
*274 FILLER_2_63
*275 FILLER_2_70
*276 FILLER_2_77
*277 FILLER_2_84
*278 FILLER_2_91
*279 FILLER_2_98
*280 FILLER_2_105
*281 FILLER_2_112
*282 FILLER_2_119
*283 FILLER_2_126
*284 FILLER_2_133
*285 FILLER_2_140
*286 FILLER_2_147
*287 FILLER_2_154
*288 FILLER_2_161
*289 FILLER_2_168
*290 FILLER_2_175
*291 FILLER_2_182
*292 FILLER_2_189
*293 FILLER_2_196
*294 FILLER_2_203
*295 FILLER_2_210
*296 FILLER_2_217
*297 FILLER_2_224
*298 FILLER_2_231
*299 FILLER_2_238
*300 FILLER_2_245
*301 FILLER_2_252
*302 FILLER_2_259
*303 FILLER_2_266
*304 FILLER_2_273
*305 FILLER_2_280
*306 FILLER_2_287
*307 FILLER_2_294
*308 FILLER_2_301
*309 FILLER_2_308
*310 FILLER_2_315
*311 FILLER_2_322
*312 FILLER_2_329
*313 FILLER_2_336
*314 FILLER_2_343
*315 FILLER_2_350
*316 FILLER_2_357
*317 FILLER_2_364
*318 FILLER_2_371
*319 FILLER_2_378
*320 FILLER_2_385
*321 FILLER_2_392
*322 FILLER_2_399
*323 FILLER_2_406
*324 FILLER_2_413
*325 FILLER_2_420
*326 FILLER_2_427
*327 FILLER_2_429
*328 FILLER_3_0
*329 FILLER_3_7
*330 FILLER_3_14
*331 FILLER_3_21
*332 FILLER_3_28
*333 FILLER_3_35
*334 FILLER_3_42
*335 FILLER_3_49
*336 FILLER_3_56
*337 FILLER_3_63
*338 FILLER_3_70
*339 FILLER_3_77
*340 FILLER_3_84
*341 FILLER_3_91
*342 FILLER_3_98
*343 FILLER_3_105
*344 FILLER_3_112
*345 FILLER_3_119
*346 FILLER_3_126
*347 FILLER_3_133
*348 FILLER_3_140
*349 FILLER_3_147
*350 FILLER_3_154
*351 FILLER_3_161
*352 FILLER_3_168
*353 FILLER_3_175
*354 FILLER_3_182
*355 FILLER_3_189
*356 FILLER_3_196
*357 FILLER_3_203
*358 FILLER_3_210
*359 FILLER_3_217
*360 FILLER_3_224
*361 FILLER_3_231
*362 FILLER_3_238
*363 FILLER_3_245
*364 FILLER_3_252
*365 FILLER_3_259
*366 FILLER_3_266
*367 FILLER_3_273
*368 FILLER_3_280
*369 FILLER_3_287
*370 FILLER_3_294
*371 FILLER_3_301
*372 FILLER_3_308
*373 FILLER_3_315
*374 FILLER_3_322
*375 FILLER_3_329
*376 FILLER_3_336
*377 FILLER_3_343
*378 FILLER_3_350
*379 FILLER_3_357
*380 FILLER_3_364
*381 FILLER_3_371
*382 FILLER_3_378
*383 FILLER_3_385
*384 FILLER_3_392
*385 FILLER_3_399
*386 FILLER_3_406
*387 FILLER_3_413
*388 FILLER_3_420
*389 FILLER_3_427
*390 FILLER_3_429
*391 FILLER_4_0
*392 FILLER_4_7
*393 FILLER_4_14
*394 FILLER_4_21
*395 FILLER_4_28
*396 FILLER_4_35
*397 FILLER_4_42
*398 FILLER_4_49
*399 FILLER_4_56
*400 FILLER_4_63
*401 FILLER_4_70
*402 FILLER_4_77
*403 FILLER_4_84
*404 FILLER_4_91
*405 FILLER_4_98
*406 FILLER_4_105
*407 FILLER_4_112
*408 FILLER_4_119
*409 FILLER_4_126
*410 FILLER_4_133
*411 FILLER_4_140
*412 FILLER_4_147
*413 FILLER_4_154
*414 FILLER_4_161
*415 FILLER_4_168
*416 FILLER_4_175
*417 FILLER_4_182
*418 FILLER_4_189
*419 FILLER_4_196
*420 FILLER_4_203
*421 FILLER_4_210
*422 FILLER_4_217
*423 FILLER_4_224
*424 FILLER_4_231
*425 FILLER_4_238
*426 FILLER_4_245
*427 FILLER_4_252
*428 FILLER_4_259
*429 FILLER_4_266
*430 FILLER_4_273
*431 FILLER_4_280
*432 FILLER_4_287
*433 FILLER_4_294
*434 FILLER_4_301
*435 FILLER_4_308
*436 FILLER_4_315
*437 FILLER_4_322
*438 FILLER_4_329
*439 FILLER_4_336
*440 FILLER_4_343
*441 FILLER_4_350
*442 FILLER_4_357
*443 FILLER_4_364
*444 FILLER_4_371
*445 FILLER_4_378
*446 FILLER_4_385
*447 FILLER_4_392
*448 FILLER_4_399
*449 FILLER_4_406
*450 FILLER_4_413
*451 FILLER_4_420
*452 FILLER_4_427
*453 FILLER_4_429
*454 FILLER_5_0
*455 FILLER_5_7
*456 FILLER_5_14
*457 FILLER_5_21
*458 FILLER_5_28
*459 FILLER_5_35
*460 FILLER_5_42
*461 FILLER_5_49
*462 FILLER_5_56
*463 FILLER_5_63
*464 FILLER_5_70
*465 FILLER_5_77
*466 FILLER_5_84
*467 FILLER_5_91
*468 FILLER_5_98
*469 FILLER_5_105
*470 FILLER_5_112
*471 FILLER_5_119
*472 FILLER_5_126
*473 FILLER_5_133
*474 FILLER_5_140
*475 FILLER_5_147
*476 FILLER_5_154
*477 FILLER_5_161
*478 FILLER_5_168
*479 FILLER_5_175
*480 FILLER_5_182
*481 FILLER_5_189
*482 FILLER_5_196
*483 FILLER_5_203
*484 FILLER_5_210
*485 FILLER_5_217
*486 FILLER_5_224
*487 FILLER_5_231
*488 FILLER_5_238
*489 FILLER_5_245
*490 FILLER_5_252
*491 FILLER_5_259
*492 FILLER_5_266
*493 FILLER_5_273
*494 FILLER_5_280
*495 FILLER_5_287
*496 FILLER_5_294
*497 FILLER_5_301
*498 FILLER_5_308
*499 FILLER_5_315
*500 FILLER_5_322
*501 FILLER_5_329
*502 FILLER_5_336
*503 FILLER_5_343
*504 FILLER_5_350
*505 FILLER_5_357
*506 FILLER_5_364
*507 FILLER_5_371
*508 FILLER_5_378
*509 FILLER_5_385
*510 FILLER_5_392
*511 FILLER_5_399
*512 FILLER_5_406
*513 FILLER_5_413
*514 FILLER_5_420
*515 FILLER_5_427
*516 FILLER_5_429
*517 FILLER_6_0
*518 FILLER_6_7
*519 FILLER_6_14
*520 FILLER_6_21
*521 FILLER_6_28
*522 FILLER_6_35
*523 FILLER_6_42
*524 FILLER_6_49
*525 FILLER_6_56
*526 FILLER_6_63
*527 FILLER_6_70
*528 FILLER_6_77
*529 FILLER_6_84
*530 FILLER_6_91
*531 FILLER_6_98
*532 FILLER_6_105
*533 FILLER_6_112
*534 FILLER_6_119
*535 FILLER_6_126
*536 FILLER_6_133
*537 FILLER_6_140
*538 FILLER_6_147
*539 FILLER_6_154
*540 FILLER_6_161
*541 FILLER_6_168
*542 FILLER_6_175
*543 FILLER_6_182
*544 FILLER_6_189
*545 FILLER_6_196
*546 FILLER_6_203
*547 FILLER_6_210
*548 FILLER_6_217
*549 FILLER_6_224
*550 FILLER_6_231
*551 FILLER_6_238
*552 FILLER_6_245
*553 FILLER_6_252
*554 FILLER_6_259
*555 FILLER_6_266
*556 FILLER_6_273
*557 FILLER_6_280
*558 FILLER_6_287
*559 FILLER_6_294
*560 FILLER_6_301
*561 FILLER_6_308
*562 FILLER_6_315
*563 FILLER_6_322
*564 FILLER_6_329
*565 FILLER_6_336
*566 FILLER_6_343
*567 FILLER_6_350
*568 FILLER_6_357
*569 FILLER_6_364
*570 FILLER_6_371
*571 FILLER_6_378
*572 FILLER_6_385
*573 FILLER_6_392
*574 FILLER_6_399
*575 FILLER_6_406
*576 FILLER_6_413
*577 FILLER_6_420
*578 FILLER_6_427
*579 FILLER_6_429
*580 FILLER_7_0
*581 FILLER_7_7
*582 FILLER_7_14
*583 FILLER_7_21
*584 FILLER_7_28
*585 FILLER_7_35
*586 FILLER_7_42
*587 FILLER_7_49
*588 FILLER_7_56
*589 FILLER_7_63
*590 FILLER_7_70
*591 FILLER_7_77
*592 FILLER_7_84
*593 FILLER_7_91
*594 FILLER_7_98
*595 FILLER_7_105
*596 FILLER_7_112
*597 FILLER_7_119
*598 FILLER_7_126
*599 FILLER_7_133
*600 FILLER_7_140
*601 FILLER_7_147
*602 FILLER_7_154
*603 FILLER_7_161
*604 FILLER_7_168
*605 FILLER_7_175
*606 FILLER_7_182
*607 FILLER_7_189
*608 FILLER_7_196
*609 FILLER_7_203
*610 FILLER_7_210
*611 FILLER_7_217
*612 FILLER_7_224
*613 FILLER_7_231
*614 FILLER_7_238
*615 FILLER_7_245
*616 FILLER_7_252
*617 FILLER_7_259
*618 FILLER_7_266
*619 FILLER_7_273
*620 FILLER_7_280
*621 FILLER_7_287
*622 FILLER_7_294
*623 FILLER_7_301
*624 FILLER_7_308
*625 FILLER_7_315
*626 FILLER_7_322
*627 FILLER_7_329
*628 FILLER_7_336
*629 FILLER_7_343
*630 FILLER_7_350
*631 FILLER_7_357
*632 FILLER_7_364
*633 FILLER_7_371
*634 FILLER_7_378
*635 FILLER_7_385
*636 FILLER_7_392
*637 FILLER_7_399
*638 FILLER_7_406
*639 FILLER_7_413
*640 FILLER_7_420
*641 FILLER_7_427
*642 FILLER_7_429
*643 FILLER_8_0
*644 FILLER_8_7
*645 FILLER_8_14
*646 FILLER_8_21
*647 FILLER_8_28
*648 FILLER_8_35
*649 FILLER_8_42
*650 FILLER_8_49
*651 FILLER_8_56
*652 FILLER_8_63
*653 FILLER_8_70
*654 FILLER_8_77
*655 FILLER_8_84
*656 FILLER_8_91
*657 FILLER_8_98
*658 FILLER_8_105
*659 FILLER_8_112
*660 FILLER_8_119
*661 FILLER_8_126
*662 FILLER_8_133
*663 FILLER_8_140
*664 FILLER_8_147
*665 FILLER_8_154
*666 FILLER_8_161
*667 FILLER_8_168
*668 FILLER_8_175
*669 FILLER_8_182
*670 FILLER_8_189
*671 FILLER_8_196
*672 FILLER_8_203
*673 FILLER_8_210
*674 FILLER_8_217
*675 FILLER_8_224
*676 FILLER_8_231
*677 FILLER_8_238
*678 FILLER_8_245
*679 FILLER_8_252
*680 FILLER_8_259
*681 FILLER_8_266
*682 FILLER_8_273
*683 FILLER_8_280
*684 FILLER_8_287
*685 FILLER_8_294
*686 FILLER_8_301
*687 FILLER_8_308
*688 FILLER_8_315
*689 FILLER_8_322
*690 FILLER_8_329
*691 FILLER_8_336
*692 FILLER_8_343
*693 FILLER_8_350
*694 FILLER_8_357
*695 FILLER_8_364
*696 FILLER_8_371
*697 FILLER_8_378
*698 FILLER_8_385
*699 FILLER_8_392
*700 FILLER_8_399
*701 FILLER_8_406
*702 FILLER_8_413
*703 FILLER_8_420
*704 FILLER_8_427
*705 FILLER_8_429
*706 FILLER_9_0
*707 FILLER_9_7
*708 FILLER_9_14
*709 FILLER_9_21
*710 FILLER_9_28
*711 FILLER_9_35
*712 FILLER_9_42
*713 FILLER_9_49
*714 FILLER_9_56
*715 FILLER_9_63
*716 FILLER_9_70
*717 FILLER_9_77
*718 FILLER_9_84
*719 FILLER_9_91
*720 FILLER_9_98
*721 FILLER_9_105
*722 FILLER_9_112
*723 FILLER_9_119
*724 FILLER_9_126
*725 FILLER_9_133
*726 FILLER_9_140
*727 FILLER_9_147
*728 FILLER_9_154
*729 FILLER_9_161
*730 FILLER_9_168
*731 FILLER_9_175
*732 FILLER_9_182
*733 FILLER_9_189
*734 FILLER_9_196
*735 FILLER_9_203
*736 FILLER_9_210
*737 FILLER_9_217
*738 FILLER_9_224
*739 FILLER_9_231
*740 FILLER_9_238
*741 FILLER_9_245
*742 FILLER_9_252
*743 FILLER_9_259
*744 FILLER_9_266
*745 FILLER_9_273
*746 FILLER_9_280
*747 FILLER_9_287
*748 FILLER_9_294
*749 FILLER_9_301
*750 FILLER_9_308
*751 FILLER_9_315
*752 FILLER_9_322
*753 FILLER_9_329
*754 FILLER_9_336
*755 FILLER_9_343
*756 FILLER_9_350
*757 FILLER_9_357
*758 FILLER_9_364
*759 FILLER_9_371
*760 FILLER_9_378
*761 FILLER_9_385
*762 FILLER_9_392
*763 FILLER_9_399
*764 FILLER_9_406
*765 FILLER_9_413
*766 FILLER_9_420
*767 FILLER_9_427
*768 FILLER_9_429
*769 FILLER_10_0
*770 FILLER_10_7
*771 FILLER_10_14
*772 FILLER_10_21
*773 FILLER_10_28
*774 FILLER_10_35
*775 FILLER_10_42
*776 FILLER_10_49
*777 FILLER_10_56
*778 FILLER_10_63
*779 FILLER_10_70
*780 FILLER_10_77
*781 FILLER_10_84
*782 FILLER_10_91
*783 FILLER_10_98
*784 FILLER_10_105
*785 FILLER_10_112
*786 FILLER_10_119
*787 FILLER_10_126
*788 FILLER_10_133
*789 FILLER_10_140
*790 FILLER_10_147
*791 FILLER_10_154
*792 FILLER_10_161
*793 FILLER_10_168
*794 FILLER_10_175
*795 FILLER_10_182
*796 FILLER_10_189
*797 FILLER_10_196
*798 FILLER_10_203
*799 FILLER_10_210
*800 FILLER_10_217
*801 FILLER_10_224
*802 FILLER_10_231
*803 FILLER_10_238
*804 FILLER_10_245
*805 FILLER_10_252
*806 FILLER_10_259
*807 FILLER_10_266
*808 FILLER_10_273
*809 FILLER_10_280
*810 FILLER_10_287
*811 FILLER_10_294
*812 FILLER_10_301
*813 FILLER_10_308
*814 FILLER_10_315
*815 FILLER_10_322
*816 FILLER_10_329
*817 FILLER_10_336
*818 FILLER_10_343
*819 FILLER_10_350
*820 FILLER_10_357
*821 FILLER_10_364
*822 FILLER_10_371
*823 FILLER_10_378
*824 FILLER_10_385
*825 FILLER_10_392
*826 FILLER_10_399
*827 FILLER_10_406
*828 FILLER_10_413
*829 FILLER_10_420
*830 FILLER_10_427
*831 FILLER_10_429
*832 FILLER_11_0
*833 FILLER_11_7
*834 FILLER_11_14
*835 FILLER_11_21
*836 FILLER_11_28
*837 FILLER_11_35
*838 FILLER_11_42
*839 FILLER_11_49
*840 FILLER_11_56
*841 FILLER_11_63
*842 FILLER_11_70
*843 FILLER_11_77
*844 FILLER_11_84
*845 FILLER_11_91
*846 FILLER_11_98
*847 FILLER_11_105
*848 FILLER_11_112
*849 FILLER_11_119
*850 FILLER_11_126
*851 FILLER_11_133
*852 FILLER_11_140
*853 FILLER_11_147
*854 FILLER_11_154
*855 FILLER_11_161
*856 FILLER_11_168
*857 FILLER_11_175
*858 FILLER_11_182
*859 FILLER_11_189
*860 FILLER_11_196
*861 FILLER_11_203
*862 FILLER_11_210
*863 FILLER_11_217
*864 FILLER_11_224
*865 FILLER_11_231
*866 FILLER_11_238
*867 FILLER_11_245
*868 FILLER_11_252
*869 FILLER_11_259
*870 FILLER_11_266
*871 FILLER_11_273
*872 FILLER_11_280
*873 FILLER_11_287
*874 FILLER_11_294
*875 FILLER_11_301
*876 FILLER_11_308
*877 FILLER_11_315
*878 FILLER_11_322
*879 FILLER_11_329
*880 FILLER_11_336
*881 FILLER_11_343
*882 FILLER_11_350
*883 FILLER_11_357
*884 FILLER_11_364
*885 FILLER_11_371
*886 FILLER_11_378
*887 FILLER_11_385
*888 FILLER_11_392
*889 FILLER_11_399
*890 FILLER_11_406
*891 FILLER_11_413
*892 FILLER_11_420
*893 FILLER_11_427
*894 FILLER_11_429
*895 FILLER_12_0
*896 FILLER_12_7
*897 FILLER_12_14
*898 FILLER_12_21
*899 FILLER_12_28
*900 FILLER_12_35
*901 FILLER_12_42
*902 FILLER_12_49
*903 FILLER_12_56
*904 FILLER_12_63
*905 FILLER_12_70
*906 FILLER_12_77
*907 FILLER_12_84
*908 FILLER_12_91
*909 FILLER_12_98
*910 FILLER_12_105
*911 FILLER_12_112
*912 FILLER_12_119
*913 FILLER_12_126
*914 FILLER_12_133
*915 FILLER_12_140
*916 FILLER_12_147
*917 FILLER_12_154
*918 FILLER_12_161
*919 FILLER_12_168
*920 FILLER_12_175
*921 FILLER_12_182
*922 FILLER_12_189
*923 FILLER_12_196
*924 FILLER_12_203
*925 FILLER_12_210
*926 FILLER_12_217
*927 FILLER_12_224
*928 FILLER_12_231
*929 FILLER_12_238
*930 FILLER_12_245
*931 FILLER_12_252
*932 FILLER_12_259
*933 FILLER_12_266
*934 FILLER_12_273
*935 FILLER_12_280
*936 FILLER_12_287
*937 FILLER_12_294
*938 FILLER_12_301
*939 FILLER_12_308
*940 FILLER_12_315
*941 FILLER_12_322
*942 FILLER_12_329
*943 FILLER_12_336
*944 FILLER_12_343
*945 FILLER_12_350
*946 FILLER_12_357
*947 FILLER_12_364
*948 FILLER_12_371
*949 FILLER_12_378
*950 FILLER_12_385
*951 FILLER_12_392
*952 FILLER_12_399
*953 FILLER_12_406
*954 FILLER_12_413
*955 FILLER_12_420
*956 FILLER_12_427
*957 FILLER_12_429
*958 FILLER_13_0
*959 FILLER_13_7
*960 FILLER_13_14
*961 FILLER_13_21
*962 FILLER_13_28
*963 FILLER_13_35
*964 FILLER_13_42
*965 FILLER_13_49
*966 FILLER_13_56
*967 FILLER_13_63
*968 FILLER_13_70
*969 FILLER_13_77
*970 FILLER_13_84
*971 FILLER_13_91
*972 FILLER_13_98
*973 FILLER_13_105
*974 FILLER_13_112
*975 FILLER_13_119
*976 FILLER_13_126
*977 FILLER_13_133
*978 FILLER_13_140
*979 FILLER_13_147
*980 FILLER_13_154
*981 FILLER_13_161
*982 FILLER_13_168
*983 FILLER_13_175
*984 FILLER_13_182
*985 FILLER_13_189
*986 FILLER_13_196
*987 FILLER_13_203
*988 FILLER_13_210
*989 FILLER_13_217
*990 FILLER_13_224
*991 FILLER_13_231
*992 FILLER_13_238
*993 FILLER_13_245
*994 FILLER_13_252
*995 FILLER_13_259
*996 FILLER_13_266
*997 FILLER_13_273
*998 FILLER_13_280
*999 FILLER_13_287
*1000 FILLER_13_294
*1001 FILLER_13_301
*1002 FILLER_13_308
*1003 FILLER_13_315
*1004 FILLER_13_322
*1005 FILLER_13_329
*1006 FILLER_13_336
*1007 FILLER_13_343
*1008 FILLER_13_350
*1009 FILLER_13_357
*1010 FILLER_13_364
*1011 FILLER_13_371
*1012 FILLER_13_378
*1013 FILLER_13_385
*1014 FILLER_13_392
*1015 FILLER_13_399
*1016 FILLER_13_406
*1017 FILLER_13_413
*1018 FILLER_13_420
*1019 FILLER_13_427
*1020 FILLER_13_429
*1021 FILLER_14_0
*1022 FILLER_14_7
*1023 FILLER_14_14
*1024 FILLER_14_21
*1025 FILLER_14_28
*1026 FILLER_14_35
*1027 FILLER_14_42
*1028 FILLER_14_49
*1029 FILLER_14_56
*1030 FILLER_14_63
*1031 FILLER_14_70
*1032 FILLER_14_77
*1033 FILLER_14_84
*1034 FILLER_14_91
*1035 FILLER_14_98
*1036 FILLER_14_105
*1037 FILLER_14_112
*1038 FILLER_14_119
*1039 FILLER_14_126
*1040 FILLER_14_133
*1041 FILLER_14_140
*1042 FILLER_14_147
*1043 FILLER_14_154
*1044 FILLER_14_161
*1045 FILLER_14_168
*1046 FILLER_14_175
*1047 FILLER_14_182
*1048 FILLER_14_189
*1049 FILLER_14_196
*1050 FILLER_14_203
*1051 FILLER_14_210
*1052 FILLER_14_217
*1053 FILLER_14_224
*1054 FILLER_14_231
*1055 FILLER_14_238
*1056 FILLER_14_245
*1057 FILLER_14_252
*1058 FILLER_14_259
*1059 FILLER_14_266
*1060 FILLER_14_273
*1061 FILLER_14_280
*1062 FILLER_14_287
*1063 FILLER_14_294
*1064 FILLER_14_301
*1065 FILLER_14_308
*1066 FILLER_14_315
*1067 FILLER_14_322
*1068 FILLER_14_329
*1069 FILLER_14_336
*1070 FILLER_14_343
*1071 FILLER_14_350
*1072 FILLER_14_357
*1073 FILLER_14_364
*1074 FILLER_14_371
*1075 FILLER_14_378
*1076 FILLER_14_385
*1077 FILLER_14_392
*1078 FILLER_14_399
*1079 FILLER_14_406
*1080 FILLER_14_413
*1081 FILLER_14_420
*1082 FILLER_14_427
*1083 FILLER_14_429
*1084 FILLER_15_0
*1085 FILLER_15_7
*1086 FILLER_15_14
*1087 FILLER_15_21
*1088 FILLER_15_28
*1089 FILLER_15_35
*1090 FILLER_15_42
*1091 FILLER_15_49
*1092 FILLER_15_56
*1093 FILLER_15_63
*1094 FILLER_15_70
*1095 FILLER_15_77
*1096 FILLER_15_84
*1097 FILLER_15_91
*1098 FILLER_15_98
*1099 FILLER_15_105
*1100 FILLER_15_112
*1101 FILLER_15_119
*1102 FILLER_15_126
*1103 FILLER_15_133
*1104 FILLER_15_140
*1105 FILLER_15_147
*1106 FILLER_15_154
*1107 FILLER_15_161
*1108 FILLER_15_168
*1109 FILLER_15_175
*1110 FILLER_15_182
*1111 FILLER_15_189
*1112 FILLER_15_196
*1113 FILLER_15_203
*1114 FILLER_15_210
*1115 FILLER_15_217
*1116 FILLER_15_224
*1117 FILLER_15_231
*1118 FILLER_15_238
*1119 FILLER_15_245
*1120 FILLER_15_252
*1121 FILLER_15_259
*1122 FILLER_15_266
*1123 FILLER_15_273
*1124 FILLER_15_280
*1125 FILLER_15_287
*1126 FILLER_15_294
*1127 FILLER_15_301
*1128 FILLER_15_308
*1129 FILLER_15_315
*1130 FILLER_15_322
*1131 FILLER_15_329
*1132 FILLER_15_336
*1133 FILLER_15_343
*1134 FILLER_15_350
*1135 FILLER_15_357
*1136 FILLER_15_364
*1137 FILLER_15_371
*1138 FILLER_15_378
*1139 FILLER_15_385
*1140 FILLER_15_392
*1141 FILLER_15_399
*1142 FILLER_15_406
*1143 FILLER_15_413
*1144 FILLER_15_420
*1145 FILLER_15_427
*1146 FILLER_15_429
*1147 FILLER_16_0
*1148 FILLER_16_7
*1149 FILLER_16_14
*1150 FILLER_16_21
*1151 FILLER_16_28
*1152 FILLER_16_35
*1153 FILLER_16_42
*1154 FILLER_16_49
*1155 FILLER_16_56
*1156 FILLER_16_63
*1157 FILLER_16_70
*1158 FILLER_16_77
*1159 FILLER_16_84
*1160 FILLER_16_91
*1161 FILLER_16_98
*1162 FILLER_16_105
*1163 FILLER_16_112
*1164 FILLER_16_119
*1165 FILLER_16_126
*1166 FILLER_16_133
*1167 FILLER_16_140
*1168 FILLER_16_147
*1169 FILLER_16_154
*1170 FILLER_16_161
*1171 FILLER_16_168
*1172 FILLER_16_175
*1173 FILLER_16_182
*1174 FILLER_16_189
*1175 FILLER_16_196
*1176 FILLER_16_203
*1177 FILLER_16_210
*1178 FILLER_16_217
*1179 FILLER_16_224
*1180 FILLER_16_231
*1181 FILLER_16_238
*1182 FILLER_16_245
*1183 FILLER_16_252
*1184 FILLER_16_259
*1185 FILLER_16_266
*1186 FILLER_16_273
*1187 FILLER_16_280
*1188 FILLER_16_287
*1189 FILLER_16_294
*1190 FILLER_16_301
*1191 FILLER_16_308
*1192 FILLER_16_315
*1193 FILLER_16_322
*1194 FILLER_16_329
*1195 FILLER_16_336
*1196 FILLER_16_343
*1197 FILLER_16_350
*1198 FILLER_16_357
*1199 FILLER_16_364
*1200 FILLER_16_371
*1201 FILLER_16_378
*1202 FILLER_16_385
*1203 FILLER_16_392
*1204 FILLER_16_399
*1205 FILLER_16_406
*1206 FILLER_16_413
*1207 FILLER_16_420
*1208 FILLER_16_427
*1209 FILLER_16_429
*1210 FILLER_17_0
*1211 FILLER_17_7
*1212 FILLER_17_14
*1213 FILLER_17_21
*1214 FILLER_17_28
*1215 FILLER_17_35
*1216 FILLER_17_42
*1217 FILLER_17_49
*1218 FILLER_17_56
*1219 FILLER_17_63
*1220 FILLER_17_70
*1221 FILLER_17_77
*1222 FILLER_17_84
*1223 FILLER_17_91
*1224 FILLER_17_98
*1225 FILLER_17_105
*1226 FILLER_17_112
*1227 FILLER_17_119
*1228 FILLER_17_126
*1229 FILLER_17_133
*1230 FILLER_17_140
*1231 FILLER_17_147
*1232 FILLER_17_154
*1233 FILLER_17_161
*1234 FILLER_17_168
*1235 FILLER_17_175
*1236 FILLER_17_182
*1237 FILLER_17_189
*1238 FILLER_17_196
*1239 FILLER_17_203
*1240 FILLER_17_210
*1241 FILLER_17_217
*1242 FILLER_17_224
*1243 FILLER_17_231
*1244 FILLER_17_238
*1245 FILLER_17_245
*1246 FILLER_17_252
*1247 FILLER_17_259
*1248 FILLER_17_266
*1249 FILLER_17_273
*1250 FILLER_17_280
*1251 FILLER_17_287
*1252 FILLER_17_294
*1253 FILLER_17_301
*1254 FILLER_17_308
*1255 FILLER_17_315
*1256 FILLER_17_322
*1257 FILLER_17_329
*1258 FILLER_17_336
*1259 FILLER_17_343
*1260 FILLER_17_350
*1261 FILLER_17_357
*1262 FILLER_17_364
*1263 FILLER_17_371
*1264 FILLER_17_378
*1265 FILLER_17_385
*1266 FILLER_17_392
*1267 FILLER_17_399
*1268 FILLER_17_406
*1269 FILLER_17_413
*1270 FILLER_17_420
*1271 FILLER_17_427
*1272 FILLER_17_429
*1273 FILLER_18_0
*1274 FILLER_18_7
*1275 FILLER_18_14
*1276 FILLER_18_21
*1277 FILLER_18_28
*1278 FILLER_18_35
*1279 FILLER_18_42
*1280 FILLER_18_49
*1281 FILLER_18_56
*1282 FILLER_18_63
*1283 FILLER_18_70
*1284 FILLER_18_77
*1285 FILLER_18_84
*1286 FILLER_18_91
*1287 FILLER_18_98
*1288 FILLER_18_105
*1289 FILLER_18_112
*1290 FILLER_18_119
*1291 FILLER_18_126
*1292 FILLER_18_133
*1293 FILLER_18_140
*1294 FILLER_18_147
*1295 FILLER_18_154
*1296 FILLER_18_161
*1297 FILLER_18_168
*1298 FILLER_18_175
*1299 FILLER_18_182
*1300 FILLER_18_189
*1301 FILLER_18_196
*1302 FILLER_18_203
*1303 FILLER_18_210
*1304 FILLER_18_217
*1305 FILLER_18_224
*1306 FILLER_18_231
*1307 FILLER_18_238
*1308 FILLER_18_245
*1309 FILLER_18_252
*1310 FILLER_18_259
*1311 FILLER_18_266
*1312 FILLER_18_273
*1313 FILLER_18_280
*1314 FILLER_18_287
*1315 FILLER_18_294
*1316 FILLER_18_301
*1317 FILLER_18_308
*1318 FILLER_18_315
*1319 FILLER_18_322
*1320 FILLER_18_329
*1321 FILLER_18_336
*1322 FILLER_18_343
*1323 FILLER_18_350
*1324 FILLER_18_357
*1325 FILLER_18_364
*1326 FILLER_18_371
*1327 FILLER_18_378
*1328 FILLER_18_385
*1329 FILLER_18_392
*1330 FILLER_18_399
*1331 FILLER_18_406
*1332 FILLER_18_413
*1333 FILLER_18_420
*1334 FILLER_18_427
*1335 FILLER_18_429
*1336 FILLER_19_0
*1337 FILLER_19_7
*1338 FILLER_19_14
*1339 FILLER_19_21
*1340 FILLER_19_28
*1341 FILLER_19_35
*1342 FILLER_19_42
*1343 FILLER_19_49
*1344 FILLER_19_56
*1345 FILLER_19_63
*1346 FILLER_19_70
*1347 FILLER_19_77
*1348 FILLER_19_84
*1349 FILLER_19_91
*1350 FILLER_19_98
*1351 FILLER_19_105
*1352 FILLER_19_112
*1353 FILLER_19_119
*1354 FILLER_19_126
*1355 FILLER_19_133
*1356 FILLER_19_140
*1357 FILLER_19_147
*1358 FILLER_19_154
*1359 FILLER_19_161
*1360 FILLER_19_168
*1361 FILLER_19_175
*1362 FILLER_19_182
*1363 FILLER_19_189
*1364 FILLER_19_196
*1365 FILLER_19_203
*1366 FILLER_19_210
*1367 FILLER_19_217
*1368 FILLER_19_224
*1369 FILLER_19_231
*1370 FILLER_19_238
*1371 FILLER_19_245
*1372 FILLER_19_252
*1373 FILLER_19_259
*1374 FILLER_19_266
*1375 FILLER_19_273
*1376 FILLER_19_280
*1377 FILLER_19_287
*1378 FILLER_19_294
*1379 FILLER_19_301
*1380 FILLER_19_308
*1381 FILLER_19_315
*1382 FILLER_19_322
*1383 FILLER_19_329
*1384 FILLER_19_336
*1385 FILLER_19_343
*1386 FILLER_19_350
*1387 FILLER_19_357
*1388 FILLER_19_364
*1389 FILLER_19_371
*1390 FILLER_19_378
*1391 FILLER_19_385
*1392 FILLER_19_392
*1393 FILLER_19_399
*1394 FILLER_19_406
*1395 FILLER_19_413
*1396 FILLER_19_420
*1397 FILLER_19_427
*1398 FILLER_19_429
*1399 FILLER_20_0
*1400 FILLER_20_7
*1401 FILLER_20_14
*1402 FILLER_20_21
*1403 FILLER_20_28
*1404 FILLER_20_35
*1405 FILLER_20_42
*1406 FILLER_20_49
*1407 FILLER_20_56
*1408 FILLER_20_63
*1409 FILLER_20_70
*1410 FILLER_20_77
*1411 FILLER_20_84
*1412 FILLER_20_91
*1413 FILLER_20_98
*1414 FILLER_20_105
*1415 FILLER_20_112
*1416 FILLER_20_119
*1417 FILLER_20_126
*1418 FILLER_20_133
*1419 FILLER_20_140
*1420 FILLER_20_147
*1421 FILLER_20_154
*1422 FILLER_20_161
*1423 FILLER_20_168
*1424 FILLER_20_175
*1425 FILLER_20_182
*1426 FILLER_20_189
*1427 FILLER_20_196
*1428 FILLER_20_203
*1429 FILLER_20_210
*1430 FILLER_20_217
*1431 FILLER_20_224
*1432 FILLER_20_231
*1433 FILLER_20_238
*1434 FILLER_20_245
*1435 FILLER_20_252
*1436 FILLER_20_259
*1437 FILLER_20_266
*1438 FILLER_20_273
*1439 FILLER_20_280
*1440 FILLER_20_287
*1441 FILLER_20_294
*1442 FILLER_20_301
*1443 FILLER_20_308
*1444 FILLER_20_315
*1445 FILLER_20_322
*1446 FILLER_20_329
*1447 FILLER_20_336
*1448 FILLER_20_343
*1449 FILLER_20_350
*1450 FILLER_20_357
*1451 FILLER_20_364
*1452 FILLER_20_371
*1453 FILLER_20_378
*1454 FILLER_20_385
*1455 FILLER_20_392
*1456 FILLER_20_399
*1457 FILLER_20_406
*1458 FILLER_20_413
*1459 FILLER_20_420
*1460 FILLER_20_427
*1461 FILLER_20_429
*1462 FILLER_21_0
*1463 FILLER_21_7
*1464 FILLER_21_14
*1465 FILLER_21_21
*1466 FILLER_21_28
*1467 FILLER_21_35
*1468 FILLER_21_42
*1469 FILLER_21_49
*1470 FILLER_21_56
*1471 FILLER_21_63
*1472 FILLER_21_70
*1473 FILLER_21_77
*1474 FILLER_21_84
*1475 FILLER_21_91
*1476 FILLER_21_98
*1477 FILLER_21_105
*1478 FILLER_21_112
*1479 FILLER_21_119
*1480 FILLER_21_126
*1481 FILLER_21_133
*1482 FILLER_21_140
*1483 FILLER_21_147
*1484 FILLER_21_154
*1485 FILLER_21_161
*1486 FILLER_21_168
*1487 FILLER_21_175
*1488 FILLER_21_182
*1489 FILLER_21_189
*1490 FILLER_21_196
*1491 FILLER_21_203
*1492 FILLER_21_210
*1493 FILLER_21_217
*1494 FILLER_21_224
*1495 FILLER_21_231
*1496 FILLER_21_238
*1497 FILLER_21_245
*1498 FILLER_21_252
*1499 FILLER_21_259
*1500 FILLER_21_266
*1501 FILLER_21_273
*1502 FILLER_21_280
*1503 FILLER_21_287
*1504 FILLER_21_294
*1505 FILLER_21_301
*1506 FILLER_21_308
*1507 FILLER_21_315
*1508 FILLER_21_322
*1509 FILLER_21_329
*1510 FILLER_21_336
*1511 FILLER_21_343
*1512 FILLER_21_350
*1513 FILLER_21_357
*1514 FILLER_21_364
*1515 FILLER_21_371
*1516 FILLER_21_378
*1517 FILLER_21_385
*1518 FILLER_21_392
*1519 FILLER_21_399
*1520 FILLER_21_406
*1521 FILLER_21_413
*1522 FILLER_21_420
*1523 FILLER_21_427
*1524 FILLER_21_429
*1525 FILLER_22_0
*1526 FILLER_22_7
*1527 FILLER_22_14
*1528 FILLER_22_21
*1529 FILLER_22_28
*1530 FILLER_22_35
*1531 FILLER_22_42
*1532 FILLER_22_49
*1533 FILLER_22_56
*1534 FILLER_22_63
*1535 FILLER_22_70
*1536 FILLER_22_77
*1537 FILLER_22_84
*1538 FILLER_22_91
*1539 FILLER_22_98
*1540 FILLER_22_105
*1541 FILLER_22_112
*1542 FILLER_22_119
*1543 FILLER_22_126
*1544 FILLER_22_133
*1545 FILLER_22_140
*1546 FILLER_22_147
*1547 FILLER_22_154
*1548 FILLER_22_161
*1549 FILLER_22_168
*1550 FILLER_22_175
*1551 FILLER_22_182
*1552 FILLER_22_189
*1553 FILLER_22_196
*1554 FILLER_22_203
*1555 FILLER_22_210
*1556 FILLER_22_217
*1557 FILLER_22_224
*1558 FILLER_22_231
*1559 FILLER_22_238
*1560 FILLER_22_245
*1561 FILLER_22_252
*1562 FILLER_22_259
*1563 FILLER_22_266
*1564 FILLER_22_273
*1565 FILLER_22_280
*1566 FILLER_22_287
*1567 FILLER_22_294
*1568 FILLER_22_301
*1569 FILLER_22_308
*1570 FILLER_22_315
*1571 FILLER_22_322
*1572 FILLER_22_329
*1573 FILLER_22_336
*1574 FILLER_22_343
*1575 FILLER_22_350
*1576 FILLER_22_357
*1577 FILLER_22_364
*1578 FILLER_22_371
*1579 FILLER_22_378
*1580 FILLER_22_385
*1581 FILLER_22_392
*1582 FILLER_22_399
*1583 FILLER_22_406
*1584 FILLER_22_413
*1585 FILLER_22_420
*1586 FILLER_22_427
*1587 FILLER_22_429
*1588 FILLER_23_0
*1589 FILLER_23_7
*1590 FILLER_23_14
*1591 FILLER_23_21
*1592 FILLER_23_28
*1593 FILLER_23_35
*1594 FILLER_23_42
*1595 FILLER_23_49
*1596 FILLER_23_56
*1597 FILLER_23_63
*1598 FILLER_23_70
*1599 FILLER_23_77
*1600 FILLER_23_84
*1601 FILLER_23_91
*1602 FILLER_23_98
*1603 FILLER_23_105
*1604 FILLER_23_112
*1605 FILLER_23_119
*1606 FILLER_23_126
*1607 FILLER_23_133
*1608 FILLER_23_140
*1609 FILLER_23_147
*1610 FILLER_23_154
*1611 FILLER_23_161
*1612 FILLER_23_168
*1613 FILLER_23_175
*1614 FILLER_23_182
*1615 FILLER_23_189
*1616 FILLER_23_196
*1617 FILLER_23_203
*1618 FILLER_23_210
*1619 FILLER_23_217
*1620 FILLER_23_224
*1621 FILLER_23_231
*1622 FILLER_23_238
*1623 FILLER_23_245
*1624 FILLER_23_252
*1625 FILLER_23_259
*1626 FILLER_23_266
*1627 FILLER_23_273