*SPEF "ieee 1481-1999"
*DESIGN "tt_um_htfab_cells"
*DATE "00:55:01 Monday November 04, 2024"
*VENDOR "The OpenROAD Project"
*PROGRAM "OpenROAD"
*VERSION "v2.0-16649-g40811f37f"
*DESIGN_FLOW "NAME_SCOPE LOCAL" "PIN_CAP NONE"
*DIVIDER /
*DELIMITER :
*BUS_DELIMITER []
*T_UNIT 1 NS
*C_UNIT 1 PF
*R_UNIT 1 OHM
*L_UNIT 1 HENRY

*NAME_MAP
*1 _000_
*2 _001_
*3 _002_
*4 _003_
*5 _004_
*6 _005_
*7 _006_
*8 _007_
*9 _008_
*10 _009_
*11 _010_
*12 _011_
*13 _012_
*14 _013_
*15 _014_
*16 _015_
*17 _016_
*18 _017_
*19 _018_
*20 _019_
*21 _020_
*22 _021_
*23 _022_
*24 _023_
*25 _024_
*26 _025_
*27 _026_
*28 _027_
*29 _028_
*30 _029_
*31 _030_
*32 _031_
*33 _032_
*34 _033_
*35 _034_
*36 _035_
*37 _036_
*38 _037_
*39 _038_
*40 _039_
*41 _040_
*42 _041_
*43 _042_
*44 _043_
*45 _044_
*46 _045_
*47 _046_
*48 _047_
*49 _048_
*50 _049_
*51 _050_
*52 _051_
*53 _052_
*54 _053_
*55 _054_
*56 _055_
*57 _056_
*58 _057_
*59 _058_
*60 _059_
*61 _060_
*62 _061_
*63 _062_
*64 _063_
*65 _064_
*66 _065_
*67 _066_
*68 _067_
*69 _068_
*70 _069_
*72 clk
*73 cm_inst\.cc_inst\.out\[0\]
*74 cm_inst\.cc_inst\.out\[10\]
*75 cm_inst\.cc_inst\.out\[11\]
*76 cm_inst\.cc_inst\.out\[12\]
*77 cm_inst\.cc_inst\.out\[13\]
*78 cm_inst\.cc_inst\.out\[14\]
*79 cm_inst\.cc_inst\.out\[15\]
*80 cm_inst\.cc_inst\.out\[16\]
*81 cm_inst\.cc_inst\.out\[17\]
*82 cm_inst\.cc_inst\.out\[18\]
*83 cm_inst\.cc_inst\.out\[19\]
*84 cm_inst\.cc_inst\.out\[1\]
*85 cm_inst\.cc_inst\.out\[20\]
*86 cm_inst\.cc_inst\.out\[21\]
*87 cm_inst\.cc_inst\.out\[22\]
*88 cm_inst\.cc_inst\.out\[23\]
*89 cm_inst\.cc_inst\.out\[24\]
*90 cm_inst\.cc_inst\.out\[25\]
*91 cm_inst\.cc_inst\.out\[26\]
*92 cm_inst\.cc_inst\.out\[27\]
*93 cm_inst\.cc_inst\.out\[28\]
*94 cm_inst\.cc_inst\.out\[29\]
*95 cm_inst\.cc_inst\.out\[2\]
*96 cm_inst\.cc_inst\.out\[30\]
*97 cm_inst\.cc_inst\.out\[31\]
*98 cm_inst\.cc_inst\.out\[32\]
*99 cm_inst\.cc_inst\.out\[33\]
*100 cm_inst\.cc_inst\.out\[34\]
*101 cm_inst\.cc_inst\.out\[35\]
*102 cm_inst\.cc_inst\.out\[36\]
*103 cm_inst\.cc_inst\.out\[37\]
*104 cm_inst\.cc_inst\.out\[38\]
*105 cm_inst\.cc_inst\.out\[39\]
*106 cm_inst\.cc_inst\.out\[3\]
*107 cm_inst\.cc_inst\.out\[40\]
*108 cm_inst\.cc_inst\.out\[41\]
*109 cm_inst\.cc_inst\.out\[42\]
*110 cm_inst\.cc_inst\.out\[43\]
*111 cm_inst\.cc_inst\.out\[44\]
*112 cm_inst\.cc_inst\.out\[45\]
*113 cm_inst\.cc_inst\.out\[46\]
*114 cm_inst\.cc_inst\.out\[47\]
*115 cm_inst\.cc_inst\.out\[48\]
*116 cm_inst\.cc_inst\.out\[49\]
*117 cm_inst\.cc_inst\.out\[4\]
*118 cm_inst\.cc_inst\.out\[50\]
*119 cm_inst\.cc_inst\.out\[51\]
*120 cm_inst\.cc_inst\.out\[52\]
*121 cm_inst\.cc_inst\.out\[53\]
*122 cm_inst\.cc_inst\.out\[54\]
*123 cm_inst\.cc_inst\.out\[55\]
*124 cm_inst\.cc_inst\.out\[56\]
*125 cm_inst\.cc_inst\.out\[57\]
*126 cm_inst\.cc_inst\.out\[58\]
*127 cm_inst\.cc_inst\.out\[59\]
*128 cm_inst\.cc_inst\.out\[5\]
*129 cm_inst\.cc_inst\.out\[60\]
*130 cm_inst\.cc_inst\.out\[61\]
*131 cm_inst\.cc_inst\.out\[62\]
*132 cm_inst\.cc_inst\.out\[63\]
*133 cm_inst\.cc_inst\.out\[64\]
*134 cm_inst\.cc_inst\.out\[65\]
*135 cm_inst\.cc_inst\.out\[66\]
*136 cm_inst\.cc_inst\.out\[67\]
*137 cm_inst\.cc_inst\.out\[68\]
*138 cm_inst\.cc_inst\.out\[69\]
*139 cm_inst\.cc_inst\.out\[6\]
*140 cm_inst\.cc_inst\.out\[70\]
*141 cm_inst\.cc_inst\.out\[71\]
*142 cm_inst\.cc_inst\.out\[72\]
*143 cm_inst\.cc_inst\.out\[7\]
*144 cm_inst\.cc_inst\.out\[8\]
*145 cm_inst\.cc_inst\.out\[9\]
*146 ena
*147 rst_n
*148 ui_in[0]
*149 ui_in[1]
*150 ui_in[2]
*151 ui_in[3]
*152 ui_in[4]
*153 ui_in[5]
*154 ui_in[6]
*155 ui_in[7]
*156 uio_in[0]
*157 uio_in[1]
*158 uio_in[2]
*159 uio_in[3]
*160 uio_in[4]
*161 uio_in[5]
*162 uio_in[6]
*163 uio_in[7]
*164 uio_oe[0]
*165 uio_oe[1]
*166 uio_oe[2]
*167 uio_oe[3]
*168 uio_oe[4]
*169 uio_oe[5]
*170 uio_oe[6]
*171 uio_oe[7]
*172 uio_out[0]
*173 uio_out[1]
*174 uio_out[2]
*175 uio_out[3]
*176 uio_out[4]
*177 uio_out[5]
*178 uio_out[6]
*179 uio_out[7]
*180 uo_out[0]
*181 uo_out[1]
*182 uo_out[2]
*183 uo_out[3]
*184 uo_out[4]
*185 uo_out[5]
*186 uo_out[6]
*187 uo_out[7]
*190 net1
*191 net2
*192 net3
*193 net4
*194 net5
*195 net6
*196 net7
*197 net8
*198 net9
*199 net10
*200 net11
*201 net12
*202 net13
*203 net14
*204 net15
*205 net16
*206 net17
*207 net18
*208 net19
*209 net20
*210 net21
*211 net22
*212 net23
*213 net24
*214 net25
*215 net26
*216 net27
*217 net28
*218 net29
*219 net30
*220 net31
*221 net32
*222 _071_
*223 _072_
*224 _073_
*225 _074_
*226 _075_
*227 _076_
*228 _077_
*229 _078_
*230 _079_
*231 _080_
*232 _081_
*233 _082_
*234 _083_
*235 _084_
*236 _085_
*237 _086_
*238 _087_
*239 _088_
*240 _089_
*241 _090_
*242 _091_
*243 _092_
*244 _093_
*245 _094_
*246 _095_
*247 _096_
*248 _097_
*249 _098_
*250 _099_
*251 _100_
*252 _101_
*253 _102_
*254 _103_
*255 _104_
*256 _105_
*257 _106_
*258 _107_
*259 _108_
*260 _109_
*261 _110_
*262 _111_
*263 _112_
*264 _113_
*265 _114_
*266 _115_
*267 _116_
*268 _117_
*269 _118_
*270 _119_
*271 _120_
*272 _121_
*273 _122_
*274 _123_
*275 _124_
*276 _125_
*277 _126_
*278 _127_
*279 _128_
*280 _129_
*281 _130_
*282 _131_
*283 _132_
*284 _133_
*285 _134_
*286 _135_
*287 _136_
*288 _137_
*289 _138_
*290 _139_
*291 _140_
*292 _141_
*293 _142_
*294 _143_
*295 _144_
*296 _145_
*297 _146_
*298 _147_
*299 _148_
*300 FILLER_0_0
*301 _150_
*302 _151_
*303 _152_
*304 _153_
*305 _154_
*306 _155_
*307 _156_
*308 _157_
*309 _158_
*310 _159_
*311 _160_
*312 _161_
*313 _162_
*314 _163_
*315 _164_
*316 _165_
*317 cm_inst\.cc_inst\.a21o_1_inst_notouch_
*318 cm_inst\.cc_inst\.a21o_2_inst_notouch_
*319 cm_inst\.cc_inst\.a21oi_1_inst_notouch_
*320 cm_inst\.cc_inst\.a21oi_2_inst_notouch_
*321 cm_inst\.cc_inst\.a221oi_1_inst_notouch_
*322 cm_inst\.cc_inst\.a22oi_1_inst_notouch_
*323 cm_inst\.cc_inst\.and2_1_inst_notouch_
*324 cm_inst\.cc_inst\.and2_2_inst_notouch_
*325 cm_inst\.cc_inst\.and3_1_inst_notouch_
*326 cm_inst\.cc_inst\.and3_2_inst_notouch_
*327 cm_inst\.cc_inst\.and4_1_inst_notouch_
*328 cm_inst\.cc_inst\.and4_2_inst_notouch_
*329 cm_inst\.cc_inst\.buf_16_inst_notouch_
*330 cm_inst\.cc_inst\.buf_1_inst_notouch_
*331 cm_inst\.cc_inst\.buf_2_inst_notouch_
*332 cm_inst\.cc_inst\.buf_4_inst_notouch_
*333 cm_inst\.cc_inst\.buf_8_inst_notouch_
*334 cm_inst\.cc_inst\.dfrbp_1_inst_notouch_
*335 cm_inst\.cc_inst\.dfrbp_2_inst_notouch_
*336 cm_inst\.cc_inst\.dlhq_1_inst_notouch_
*337 cm_inst\.cc_inst\.dlhr_1_inst_notouch_
*338 cm_inst\.cc_inst\.dlhrq_1_inst_notouch_
*339 cm_inst\.cc_inst\.dllr_1_inst_notouch_
*340 cm_inst\.cc_inst\.dllrq_1_inst_notouch_
*341 cm_inst\.cc_inst\.dlygate4sd1_1_inst_notouch_
*342 cm_inst\.cc_inst\.dlygate4sd2_1_inst_notouch_
*343 cm_inst\.cc_inst\.dlygate4sd3_1_inst_notouch_
*344 cm_inst\.cc_inst\.ebufn_2_inst1_notouch_
*345 cm_inst\.cc_inst\.ebufn_2_inst2_notouch_
*346 cm_inst\.cc_inst\.ebufn_4_inst1_notouch_
*347 cm_inst\.cc_inst\.ebufn_4_inst2_notouch_
*348 cm_inst\.cc_inst\.ebufn_8_inst1_notouch_
*349 cm_inst\.cc_inst\.ebufn_8_inst2_notouch_
*350 cm_inst\.cc_inst\.einvn_2_inst1_notouch_
*351 cm_inst\.cc_inst\.einvn_2_inst2_notouch_
*352 cm_inst\.cc_inst\.einvn_4_inst1_notouch_
*353 cm_inst\.cc_inst\.einvn_4_inst2_notouch_
*354 cm_inst\.cc_inst\.einvn_8_inst1_notouch_
*355 cm_inst\.cc_inst\.einvn_8_inst2_notouch_
*356 cm_inst\.cc_inst\.inv_16_inst_notouch_
*357 cm_inst\.cc_inst\.inv_1_inst_notouch_
*358 cm_inst\.cc_inst\.inv_2_inst_notouch_
*359 cm_inst\.cc_inst\.inv_4_inst_notouch_
*360 cm_inst\.cc_inst\.inv_8_inst_notouch_
*361 cm_inst\.cc_inst\.lgcp_1_inst_notouch_
*362 cm_inst\.cc_inst\.mux2_1_inst_notouch_
*363 cm_inst\.cc_inst\.mux2_2_inst_notouch_
*364 cm_inst\.cc_inst\.mux4_1_inst_notouch_
*365 cm_inst\.cc_inst\.nand2_1_inst_notouch_
*366 cm_inst\.cc_inst\.nand2_2_inst_notouch_
*367 cm_inst\.cc_inst\.nand2b_1_inst_notouch_
*368 cm_inst\.cc_inst\.nand2b_2_inst_notouch_
*369 cm_inst\.cc_inst\.nand3_1_inst_notouch_
*370 cm_inst\.cc_inst\.nand3b_1_inst_notouch_
*371 cm_inst\.cc_inst\.nand4_1_inst_notouch_
*372 cm_inst\.cc_inst\.nor2_1_inst_notouch_
*373 cm_inst\.cc_inst\.nor2_2_inst_notouch_
*374 cm_inst\.cc_inst\.nor2b_1_inst_notouch_
*375 cm_inst\.cc_inst\.nor2b_2_inst_notouch_
*376 cm_inst\.cc_inst\.nor3_1_inst_notouch_
*377 cm_inst\.cc_inst\.nor3_2_inst_notouch_
*378 cm_inst\.cc_inst\.nor4_1_inst_notouch_
*379 cm_inst\.cc_inst\.nor4_2_inst_notouch_
*380 cm_inst\.cc_inst\.o21ai_1_inst_notouch_
*381 cm_inst\.cc_inst\.or2_1_inst_notouch_
*382 cm_inst\.cc_inst\.or2_2_inst_notouch_
*383 cm_inst\.cc_inst\.or3_1_inst_notouch_
*384 cm_inst\.cc_inst\.or3_2_inst_notouch_
*385 cm_inst\.cc_inst\.or4_1_inst_notouch_
*386 cm_inst\.cc_inst\.or4_2_inst_notouch_
*387 cm_inst\.cc_inst\.sdfbbp_1_inst_notouch_
*388 cm_inst\.cc_inst\.sighold_inst1_notouch_
*389 cm_inst\.cc_inst\.sighold_inst2_notouch_
*390 cm_inst\.cc_inst\.slgcp_1_inst_notouch_
*391 cm_inst\.cc_inst\.tiehi_inst_notouch_
*392 cm_inst\.cc_inst\.tielo_inst_notouch_
*393 cm_inst\.cc_inst\.xnor2_1_inst_notouch_
*394 cm_inst\.cc_inst\.xor2_1_inst_notouch_
*395 input1
*396 input2
*397 input3
*398 output4
*399 output5
*400 output6
*401 output7
*402 output8
*403 output9
*404 output10
*405 output11
*406 fanout12
*407 fanout13
*408 fanout14
*409 fanout15
*410 fanout16
*411 _150__17
*412 _151__18
*413 _152__19
*414 _153__20
*415 _154__21
*416 _155__22
*417 _156__23
*418 _157__24
*419 _158__25
*420 _159__26
*421 _160__27
*422 _161__28
*423 _162__29
*424 _163__30
*425 _164__31
*426 _165__32
*427 FILLER_0_7
*428 FILLER_0_14
*429 FILLER_0_21
*430 FILLER_0_28
*431 FILLER_0_35
*432 FILLER_0_42
*433 FILLER_0_49
*434 FILLER_0_56
*435 FILLER_0_63
*436 FILLER_0_70
*437 FILLER_0_77
*438 FILLER_0_84
*439 FILLER_0_91
*440 FILLER_0_98
*441 FILLER_0_105
*442 FILLER_0_112
*443 FILLER_0_119
*444 FILLER_0_126
*445 FILLER_0_133
*446 FILLER_0_140
*447 FILLER_0_147
*448 FILLER_0_154
*449 FILLER_0_161
*450 FILLER_0_168
*451 FILLER_0_175
*452 FILLER_0_182
*453 FILLER_0_189
*454 FILLER_0_196
*455 FILLER_0_203
*456 FILLER_0_210
*457 FILLER_0_217
*458 FILLER_0_224
*459 FILLER_0_231
*460 FILLER_0_238
*461 FILLER_0_245
*462 FILLER_0_252
*463 FILLER_0_259
*464 FILLER_0_266
*465 FILLER_0_273
*466 FILLER_0_280
*467 FILLER_0_287
*468 FILLER_0_294
*469 FILLER_0_301
*470 FILLER_0_308
*471 FILLER_0_315
*472 FILLER_0_322
*473 FILLER_0_329
*474 FILLER_0_336
*475 FILLER_0_343
*476 FILLER_0_350
*477 FILLER_0_357
*478 FILLER_0_364
*479 FILLER_0_371
*480 FILLER_0_378
*481 FILLER_0_385
*482 FILLER_0_392
*483 FILLER_0_399
*484 FILLER_0_406
*485 FILLER_0_413
*486 FILLER_0_420
*487 FILLER_0_427
*488 FILLER_0_429
*489 FILLER_1_0
*490 FILLER_1_7
*491 FILLER_1_14
*492 FILLER_1_21
*493 FILLER_1_28
*494 FILLER_1_35
*495 FILLER_1_42
*496 FILLER_1_49
*497 FILLER_1_56
*498 FILLER_1_63
*499 FILLER_1_70
*500 FILLER_1_77
*501 FILLER_1_84
*502 FILLER_1_91
*503 FILLER_1_98
*504 FILLER_1_105
*505 FILLER_1_112
*506 FILLER_1_119
*507 FILLER_1_126
*508 FILLER_1_133
*509 FILLER_1_140
*510 FILLER_1_147
*511 FILLER_1_154
*512 FILLER_1_161
*513 FILLER_1_168
*514 FILLER_1_175
*515 FILLER_1_182
*516 FILLER_1_189
*517 FILLER_1_196
*518 FILLER_1_203
*519 FILLER_1_210
*520 FILLER_1_217
*521 FILLER_1_224
*522 FILLER_1_231
*523 FILLER_1_238
*524 FILLER_1_245
*525 FILLER_1_252
*526 FILLER_1_259
*527 FILLER_1_266
*528 FILLER_1_273
*529 FILLER_1_280
*530 FILLER_1_287
*531 FILLER_1_294
*532 FILLER_1_301
*533 FILLER_1_308
*534 FILLER_1_315
*535 FILLER_1_322
*536 FILLER_1_329
*537 FILLER_1_336
*538 FILLER_1_343
*539 FILLER_1_350
*540 FILLER_1_357
*541 FILLER_1_364
*542 FILLER_1_371
*543 FILLER_1_378
*544 FILLER_1_385
*545 FILLER_1_392
*546 FILLER_1_399
*547 FILLER_1_406
*548 FILLER_1_413
*549 FILLER_1_420
*550 FILLER_1_427
*551 FILLER_1_429
*552 FILLER_2_0
*553 FILLER_2_7
*554 FILLER_2_14
*555 FILLER_2_21
*556 FILLER_2_28
*557 FILLER_2_35
*558 FILLER_2_42
*559 FILLER_2_49
*560 FILLER_2_56
*561 FILLER_2_63
*562 FILLER_2_70
*563 FILLER_2_77
*564 FILLER_2_84
*565 FILLER_2_91
*566 FILLER_2_98
*567 FILLER_2_105
*568 FILLER_2_112
*569 FILLER_2_119
*570 FILLER_2_126
*571 FILLER_2_133
*572 FILLER_2_140
*573 FILLER_2_147
*574 FILLER_2_154
*575 FILLER_2_161
*576 FILLER_2_168
*577 FILLER_2_175
*578 FILLER_2_182
*579 FILLER_2_189
*580 FILLER_2_196
*581 FILLER_2_203
*582 FILLER_2_210
*583 FILLER_2_217
*584 FILLER_2_224
*585 FILLER_2_231
*586 FILLER_2_238
*587 FILLER_2_245
*588 FILLER_2_252
*589 FILLER_2_259
*590 FILLER_2_266
*591 FILLER_2_273
*592 FILLER_2_280
*593 FILLER_2_287
*594 FILLER_2_294
*595 FILLER_2_301
*596 FILLER_2_308
*597 FILLER_2_315
*598 FILLER_2_322
*599 FILLER_2_329
*600 FILLER_2_336
*601 FILLER_2_343
*602 FILLER_2_350
*603 FILLER_2_357
*604 FILLER_2_364
*605 FILLER_2_371
*606 FILLER_2_378
*607 FILLER_2_385
*608 FILLER_2_392
*609 FILLER_2_399
*610 FILLER_2_406
*611 FILLER_2_413
*612 FILLER_2_420
*613 FILLER_2_427
*614 FILLER_2_429
*615 FILLER_3_0
*616 FILLER_3_7
*617 FILLER_3_14
*618 FILLER_3_21
*619 FILLER_3_28
*620 FILLER_3_35
*621 FILLER_3_42
*622 FILLER_3_49
*623 FILLER_3_56
*624 FILLER_3_63
*625 FILLER_3_70
*626 FILLER_3_77
*627 FILLER_3_84
*628 FILLER_3_91
*629 FILLER_3_98
*630 FILLER_3_105
*631 FILLER_3_112
*632 FILLER_3_119
*633 FILLER_3_126
*634 FILLER_3_133
*635 FILLER_3_140
*636 FILLER_3_147
*637 FILLER_3_154
*638 FILLER_3_161
*639 FILLER_3_168
*640 FILLER_3_175
*641 FILLER_3_182
*642 FILLER_3_189
*643 FILLER_3_196
*644 FILLER_3_203
*645 FILLER_3_210
*646 FILLER_3_217
*647 FILLER_3_224
*648 FILLER_3_231
*649 FILLER_3_238
*650 FILLER_3_245
*651 FILLER_3_252
*652 FILLER_3_259
*653 FILLER_3_266
*654 FILLER_3_273
*655 FILLER_3_280
*656 FILLER_3_287
*657 FILLER_3_294
*658 FILLER_3_301
*659 FILLER_3_308
*660 FILLER_3_315
*661 FILLER_3_322
*662 FILLER_3_329
*663 FILLER_3_336
*664 FILLER_3_343
*665 FILLER_3_350
*666 FILLER_3_357
*667 FILLER_3_364
*668 FILLER_3_371
*669 FILLER_3_378
*670 FILLER_3_385
*671 FILLER_3_392
*672 FILLER_3_399
*673 FILLER_3_406
*674 FILLER_3_413
*675 FILLER_3_420
*676 FILLER_3_427
*677 FILLER_3_429
*678 FILLER_4_0
*679 FILLER_4_7
*680 FILLER_4_14
*681 FILLER_4_21
*682 FILLER_4_28
*683 FILLER_4_35
*684 FILLER_4_42
*685 FILLER_4_49
*686 FILLER_4_56
*687 FILLER_4_63
*688 FILLER_4_70
*689 FILLER_4_77
*690 FILLER_4_84
*691 FILLER_4_91
*692 FILLER_4_98
*693 FILLER_4_105
*694 FILLER_4_112
*695 FILLER_4_119
*696 FILLER_4_126
*697 FILLER_4_133
*698 FILLER_4_140
*699 FILLER_4_147
*700 FILLER_4_154
*701 FILLER_4_161
*702 FILLER_4_168
*703 FILLER_4_175
*704 FILLER_4_182
*705 FILLER_4_189
*706 FILLER_4_196
*707 FILLER_4_203
*708 FILLER_4_210
*709 FILLER_4_217
*710 FILLER_4_224
*711 FILLER_4_231
*712 FILLER_4_238
*713 FILLER_4_245
*714 FILLER_4_252
*715 FILLER_4_259
*716 FILLER_4_266
*717 FILLER_4_273
*718 FILLER_4_280
*719 FILLER_4_287
*720 FILLER_4_294
*721 FILLER_4_301
*722 FILLER_4_308
*723 FILLER_4_315
*724 FILLER_4_322
*725 FILLER_4_329
*726 FILLER_4_336
*727 FILLER_4_343
*728 FILLER_4_350
*729 FILLER_4_357
*730 FILLER_4_364
*731 FILLER_4_371
*732 FILLER_4_378
*733 FILLER_4_385
*734 FILLER_4_392
*735 FILLER_4_399
*736 FILLER_4_406
*737 FILLER_4_413
*738 FILLER_4_420
*739 FILLER_4_427
*740 FILLER_4_429
*741 FILLER_5_0
*742 FILLER_5_7
*743 FILLER_5_14
*744 FILLER_5_21
*745 FILLER_5_28
*746 FILLER_5_35
*747 FILLER_5_42
*748 FILLER_5_49
*749 FILLER_5_56
*750 FILLER_5_63
*751 FILLER_5_70
*752 FILLER_5_77
*753 FILLER_5_84
*754 FILLER_5_91
*755 FILLER_5_98
*756 FILLER_5_105
*757 FILLER_5_112
*758 FILLER_5_119
*759 FILLER_5_126
*760 FILLER_5_133
*761 FILLER_5_140
*762 FILLER_5_147
*763 FILLER_5_154
*764 FILLER_5_161
*765 FILLER_5_168
*766 FILLER_5_175
*767 FILLER_5_182
*768 FILLER_5_189
*769 FILLER_5_196
*770 FILLER_5_203
*771 FILLER_5_210
*772 FILLER_5_217
*773 FILLER_5_224
*774 FILLER_5_231
*775 FILLER_5_238
*776 FILLER_5_245
*777 FILLER_5_252
*778 FILLER_5_259
*779 FILLER_5_266
*780 FILLER_5_273
*781 FILLER_5_280
*782 FILLER_5_287
*783 FILLER_5_294
*784 FILLER_5_301
*785 FILLER_5_308
*786 FILLER_5_315
*787 FILLER_5_322
*788 FILLER_5_329
*789 FILLER_5_336
*790 FILLER_5_343
*791 FILLER_5_350
*792 FILLER_5_357
*793 FILLER_5_364
*794 FILLER_5_371
*795 FILLER_5_378
*796 FILLER_5_385
*797 FILLER_5_392
*798 FILLER_5_399
*799 FILLER_5_406
*800 FILLER_5_413
*801 FILLER_5_420
*802 FILLER_5_427
*803 FILLER_5_429
*804 FILLER_6_0
*805 FILLER_6_7
*806 FILLER_6_14
*807 FILLER_6_21
*808 FILLER_6_28
*809 FILLER_6_35
*810 FILLER_6_42
*811 FILLER_6_49
*812 FILLER_6_56
*813 FILLER_6_63
*814 FILLER_6_70
*815 FILLER_6_77
*816 FILLER_6_84
*817 FILLER_6_91
*818 FILLER_6_98
*819 FILLER_6_105
*820 FILLER_6_112
*821 FILLER_6_119
*822 FILLER_6_126
*823 FILLER_6_133
*824 FILLER_6_140
*825 FILLER_6_147
*826 FILLER_6_154
*827 FILLER_6_161
*828 FILLER_6_168
*829 FILLER_6_175
*830 FILLER_6_182
*831 FILLER_6_189
*832 FILLER_6_196
*833 FILLER_6_203
*834 FILLER_6_210
*835 FILLER_6_217
*836 FILLER_6_224
*837 FILLER_6_231
*838 FILLER_6_238
*839 FILLER_6_245
*840 FILLER_6_252
*841 FILLER_6_259
*842 FILLER_6_266
*843 FILLER_6_273
*844 FILLER_6_280
*845 FILLER_6_287
*846 FILLER_6_294
*847 FILLER_6_301
*848 FILLER_6_308
*849 FILLER_6_315
*850 FILLER_6_322
*851 FILLER_6_329
*852 FILLER_6_336
*853 FILLER_6_343
*854 FILLER_6_350
*855 FILLER_6_357
*856 FILLER_6_364
*857 FILLER_6_371
*858 FILLER_6_378
*859 FILLER_6_385
*860 FILLER_6_392
*861 FILLER_6_399
*862 FILLER_6_406
*863 FILLER_6_413
*864 FILLER_6_420
*865 FILLER_6_427
*866 FILLER_6_429
*867 FILLER_7_0
*868 FILLER_7_7
*869 FILLER_7_14
*870 FILLER_7_21
*871 FILLER_7_28
*872 FILLER_7_35
*873 FILLER_7_42
*874 FILLER_7_49
*875 FILLER_7_56
*876 FILLER_7_63
*877 FILLER_7_70
*878 FILLER_7_77
*879 FILLER_7_84
*880 FILLER_7_91
*881 FILLER_7_98
*882 FILLER_7_105
*883 FILLER_7_112
*884 FILLER_7_119
*885 FILLER_7_126
*886 FILLER_7_133
*887 FILLER_7_140
*888 FILLER_7_147
*889 FILLER_7_154
*890 FILLER_7_161
*891 FILLER_7_168
*892 FILLER_7_175
*893 FILLER_7_182
*894 FILLER_7_189
*895 FILLER_7_196
*896 FILLER_7_203
*897 FILLER_7_210
*898 FILLER_7_217
*899 FILLER_7_224
*900 FILLER_7_231
*901 FILLER_7_238
*902 FILLER_7_245
*903 FILLER_7_252
*904 FILLER_7_259
*905 FILLER_7_266
*906 FILLER_7_273
*907 FILLER_7_280
*908 FILLER_7_287
*909 FILLER_7_294
*910 FILLER_7_301
*911 FILLER_7_308
*912 FILLER_7_315
*913 FILLER_7_322
*914 FILLER_7_329
*915 FILLER_7_336
*916 FILLER_7_343
*917 FILLER_7_350
*918 FILLER_7_357
*919 FILLER_7_364
*920 FILLER_7_371
*921 FILLER_7_378
*922 FILLER_7_385
*923 FILLER_7_392
*924 FILLER_7_399
*925 FILLER_7_406
*926 FILLER_7_413
*927 FILLER_7_420
*928 FILLER_7_427
*929 FILLER_7_429
*930 FILLER_8_0
*931 FILLER_8_7
*932 FILLER_8_14
*933 FILLER_8_21
*934 FILLER_8_28
*935 FILLER_8_35
*936 FILLER_8_42
*937 FILLER_8_49
*938 FILLER_8_56
*939 FILLER_8_63
*940 FILLER_8_70
*941 FILLER_8_77
*942 FILLER_8_84
*943 FILLER_8_91
*944 FILLER_8_98
*945 FILLER_8_105
*946 FILLER_8_112
*947 FILLER_8_119
*948 FILLER_8_126
*949 FILLER_8_133
*950 FILLER_8_140
*951 FILLER_8_147
*952 FILLER_8_154
*953 FILLER_8_161
*954 FILLER_8_168
*955 FILLER_8_175
*956 FILLER_8_182
*957 FILLER_8_189
*958 FILLER_8_196
*959 FILLER_8_203
*960 FILLER_8_210
*961 FILLER_8_217
*962 FILLER_8_224
*963 FILLER_8_231
*964 FILLER_8_238
*965 FILLER_8_245
*966 FILLER_8_252
*967 FILLER_8_259
*968 FILLER_8_266
*969 FILLER_8_273
*970 FILLER_8_280
*971 FILLER_8_287
*972 FILLER_8_294
*973 FILLER_8_301
*974 FILLER_8_308
*975 FILLER_8_315
*976 FILLER_8_322
*977 FILLER_8_329
*978 FILLER_8_336
*979 FILLER_8_343
*980 FILLER_8_350
*981 FILLER_8_357
*982 FILLER_8_364
*983 FILLER_8_371
*984 FILLER_8_378
*985 FILLER_8_385
*986 FILLER_8_392
*987 FILLER_8_399
*988 FILLER_8_406
*989 FILLER_8_413
*990 FILLER_8_420
*991 FILLER_8_427
*992 FILLER_8_429
*993 FILLER_9_0
*994 FILLER_9_7
*995 FILLER_9_14
*996 FILLER_9_21
*997 FILLER_9_28
*998 FILLER_9_35
*999 FILLER_9_42
*1000 FILLER_9_49
*1001 FILLER_9_56
*1002 FILLER_9_63
*1003 FILLER_9_70
*1004 FILLER_9_77
*1005 FILLER_9_84
*1006 FILLER_9_91
*1007 FILLER_9_98
*1008 FILLER_9_105
*1009 FILLER_9_112
*1010 FILLER_9_119
*1011 FILLER_9_126
*1012 FILLER_9_133
*1013 FILLER_9_140
*1014 FILLER_9_147
*1015 FILLER_9_154
*1016 FILLER_9_161
*1017 FILLER_9_168
*1018 FILLER_9_175
*1019 FILLER_9_182
*1020 FILLER_9_189
*1021 FILLER_9_196
*1022 FILLER_9_203
*1023 FILLER_9_210
*1024 FILLER_9_217
*1025 FILLER_9_224
*1026 FILLER_9_231
*1027 FILLER_9_238
*1028 FILLER_9_245
*1029 FILLER_9_252
*1030 FILLER_9_259
*1031 FILLER_9_266
*1032 FILLER_9_273
*1033 FILLER_9_280
*1034 FILLER_9_287
*1035 FILLER_9_294
*1036 FILLER_9_301
*1037 FILLER_9_308
*1038 FILLER_9_315
*1039 FILLER_9_322
*1040 FILLER_9_329
*1041 FILLER_9_336
*1042 FILLER_9_343
*1043 FILLER_9_350
*1044 FILLER_9_357
*1045 FILLER_9_364
*1046 FILLER_9_371
*1047 FILLER_9_378
*1048 FILLER_9_385
*1049 FILLER_9_392
*1050 FILLER_9_399
*1051 FILLER_9_406
*1052 FILLER_9_413
*1053 FILLER_9_420
*1054 FILLER_9_427
*1055 FILLER_9_429
*1056 FILLER_10_0
*1057 FILLER_10_7
*1058 FILLER_10_14
*1059 FILLER_10_21
*1060 FILLER_10_28
*1061 FILLER_10_35
*1062 FILLER_10_42
*1063 FILLER_10_49
*1064 FILLER_10_56
*1065 FILLER_10_63
*1066 FILLER_10_70
*1067 FILLER_10_77
*1068 FILLER_10_84
*1069 FILLER_10_91
*1070 FILLER_10_98
*1071 FILLER_10_105
*1072 FILLER_10_112
*1073 FILLER_10_119
*1074 FILLER_10_126
*1075 FILLER_10_133
*1076 FILLER_10_140
*1077 FILLER_10_147
*1078 FILLER_10_154
*1079 FILLER_10_161
*1080 FILLER_10_168
*1081 FILLER_10_175
*1082 FILLER_10_182
*1083 FILLER_10_189
*1084 FILLER_10_196
*1085 FILLER_10_203
*1086 FILLER_10_210
*1087 FILLER_10_217
*1088 FILLER_10_224
*1089 FILLER_10_231
*1090 FILLER_10_238
*1091 FILLER_10_245
*1092 FILLER_10_252
*1093 FILLER_10_259
*1094 FILLER_10_266
*1095 FILLER_10_273
*1096 FILLER_10_280
*1097 FILLER_10_287
*1098 FILLER_10_294
*1099 FILLER_10_301
*1100 FILLER_10_308
*1101 FILLER_10_315
*1102 FILLER_10_322
*1103 FILLER_10_329
*1104 FILLER_10_336
*1105 FILLER_10_343
*1106 FILLER_10_350
*1107 FILLER_10_357
*1108 FILLER_10_364
*1109 FILLER_10_371
*1110 FILLER_10_378
*1111 FILLER_10_385
*1112 FILLER_10_392
*1113 FILLER_10_399
*1114 FILLER_10_406
*1115 FILLER_10_413
*1116 FILLER_10_420
*1117 FILLER_10_427
*1118 FILLER_10_429
*1119 FILLER_11_0
*1120 FILLER_11_7
*1121 FILLER_11_14
*1122 FILLER_11_21
*1123 FILLER_11_28
*1124 FILLER_11_35
*1125 FILLER_11_42
*1126 FILLER_11_49
*1127 FILLER_11_56
*1128 FILLER_11_63
*1129 FILLER_11_70
*1130 FILLER_11_77
*1131 FILLER_11_84
*1132 FILLER_11_91
*1133 FILLER_11_98
*1134 FILLER_11_105
*1135 FILLER_11_112
*1136 FILLER_11_119
*1137 FILLER_11_126
*1138 FILLER_11_133
*1139 FILLER_11_140
*1140 FILLER_11_147
*1141 FILLER_11_154
*1142 FILLER_11_161
*1143 FILLER_11_168
*1144 FILLER_11_175
*1145 FILLER_11_182
*1146 FILLER_11_189
*1147 FILLER_11_196
*1148 FILLER_11_203
*1149 FILLER_11_210
*1150 FILLER_11_217
*1151 FILLER_11_224
*1152 FILLER_11_231
*1153 FILLER_11_238
*1154 FILLER_11_245
*1155 FILLER_11_252
*1156 FILLER_11_259
*1157 FILLER_11_266
*1158 FILLER_11_273
*1159 FILLER_11_280
*1160 FILLER_11_287
*1161 FILLER_11_294
*1162 FILLER_11_301
*1163 FILLER_11_308
*1164 FILLER_11_315
*1165 FILLER_11_322
*1166 FILLER_11_329
*1167 FILLER_11_336
*1168 FILLER_11_343
*1169 FILLER_11_350
*1170 FILLER_11_357
*1171 FILLER_11_364
*1172 FILLER_11_371
*1173 FILLER_11_378
*1174 FILLER_11_385
*1175 FILLER_11_392
*1176 FILLER_11_399
*1177 FILLER_11_406
*1178 FILLER_11_413
*1179 FILLER_11_420
*1180 FILLER_11_427
*1181 FILLER_11_429
*1182 FILLER_12_0
*1183 FILLER_12_7
*1184 FILLER_12_14
*1185 FILLER_12_21
*1186 FILLER_12_28
*1187 FILLER_12_35
*1188 FILLER_12_42
*1189 FILLER_12_49
*1190 FILLER_12_56
*1191 FILLER_12_63
*1192 FILLER_12_70
*1193 FILLER_12_77
*1194 FILLER_12_84
*1195 FILLER_12_91
*1196 FILLER_12_98
*1197 FILLER_12_105
*1198 FILLER_12_112
*1199 FILLER_12_119
*1200 FILLER_12_126
*1201 FILLER_12_133
*1202 FILLER_12_140
*1203 FILLER_12_147
*1204 FILLER_12_154
*1205 FILLER_12_161
*1206 FILLER_12_168
*1207 FILLER_12_175
*1208 FILLER_12_182
*1209 FILLER_12_189
*1210 FILLER_12_196
*1211 FILLER_12_203
*1212 FILLER_12_210
*1213 FILLER_12_217
*1214 FILLER_12_224
*1215 FILLER_12_231
*1216 FILLER_12_238
*1217 FILLER_12_245
*1218 FILLER_12_252
*1219 FILLER_12_259
*1220 FILLER_12_266
*1221 FILLER_12_273
*1222 FILLER_12_280
*1223 FILLER_12_287
*1224 FILLER_12_294
*1225 FILLER_12_301
*1226 FILLER_12_308
*1227 FILLER_12_315
*1228 FILLER_12_322
*1229 FILLER_12_329
*1230 FILLER_12_336
*1231 FILLER_12_343
*1232 FILLER_12_350
*1233 FILLER_12_357
*1234 FILLER_12_364
*1235 FILLER_12_371
*1236 FILLER_12_378
*1237 FILLER_12_385
*1238 FILLER_12_392
*1239 FILLER_12_399
*1240 FILLER_12_406
*1241 FILLER_12_413
*1242 FILLER_12_420
*1243 FILLER_12_427
*1244 FILLER_12_429
*1245 FILLER_13_0
*1246 FILLER_13_7
*1247 FILLER_13_14
*1248 FILLER_13_21
*1249 FILLER_13_28
*1250 FILLER_13_35
*1251 FILLER_13_42
*1252 FILLER_13_49
*1253 FILLER_13_56
*1254 FILLER_13_63
*1255 FILLER_13_70
*1256 FILLER_13_77
*1257 FILLER_13_84
*1258 FILLER_13_91
*1259 FILLER_13_98
*1260 FILLER_13_105
*1261 FILLER_13_112
*1262 FILLER_13_119
*1263 FILLER_13_126
*1264 FILLER_13_133
*1265 FILLER_13_140
*1266 FILLER_13_147
*1267 FILLER_13_154
*1268 FILLER_13_161
*1269 FILLER_13_168
*1270 FILLER_13_175
*1271 FILLER_13_182
*1272 FILLER_13_189
*1273 FILLER_13_196
*1274 FILLER_13_203
*1275 FILLER_13_210
*1276 FILLER_13_217
*1277 FILLER_13_224
*1278 FILLER_13_231
*1279 FILLER_13_238
*1280 FILLER_13_245
*1281 FILLER_13_252
*1282 FILLER_13_259
*1283 FILLER_13_266
*1284 FILLER_13_273
*1285 FILLER_13_280
*1286 FILLER_13_287
*1287 FILLER_13_294
*1288 FILLER_13_301
*1289 FILLER_13_308
*1290 FILLER_13_315
*1291 FILLER_13_322
*1292 FILLER_13_329
*1293 FILLER_13_336
*1294 FILLER_13_343
*1295 FILLER_13_350
*1296 FILLER_13_357
*1297 FILLER_13_364
*1298 FILLER_13_371
*1299 FILLER_13_378
*1300 FILLER_13_385
*1301 FILLER_13_392
*1302 FILLER_13_399
*1303 FILLER_13_406
*1304 FILLER_13_413
*1305 FILLER_13_420
*1306 FILLER_13_427
*1307 FILLER_13_429
*1308 FILLER_14_0
*1309 FILLER_14_7
*1310 FILLER_14_14
*1311 FILLER_14_21
*1312 FILLER_14_28
*1313 FILLER_14_35
*1314 FILLER_14_42
*1315 FILLER_14_49
*1316 FILLER_14_56
*1317 FILLER_14_63
*1318 FILLER_14_70
*1319 FILLER_14_77
*1320 FILLER_14_84
*1321 FILLER_14_91
*1322 FILLER_14_98
*1323 FILLER_14_105
*1324 FILLER_14_112
*1325 FILLER_14_119
*1326 FILLER_14_126
*1327 FILLER_14_133
*1328 FILLER_14_140
*1329 FILLER_14_147
*1330 FILLER_14_154
*1331 FILLER_14_161
*1332 FILLER_14_168
*1333 FILLER_14_175
*1334 FILLER_14_182
*1335 FILLER_14_189
*1336 FILLER_14_196
*1337 FILLER_14_203
*1338 FILLER_14_210
*1339 FILLER_14_217
*1340 FILLER_14_224
*1341 FILLER_14_231
*1342 FILLER_14_238
*1343 FILLER_14_245
*1344 FILLER_14_252
*1345 FILLER_14_259
*1346 FILLER_14_266
*1347 FILLER_14_273
*1348 FILLER_14_280
*1349 FILLER_14_287
*1350 FILLER_14_294
*1351 FILLER_14_301
*1352 FILLER_14_308
*1353 FILLER_14_315
*1354 FILLER_14_322
*1355 FILLER_14_329
*1356 FILLER_14_336
*1357 FILLER_14_343
*1358 FILLER_14_350
*1359 FILLER_14_357
*1360 FILLER_14_364
*1361 FILLER_14_371
*1362 FILLER_14_378
*1363 FILLER_14_385
*1364 FILLER_14_392
*1365 FILLER_14_399
*1366 FILLER_14_406
*1367 FILLER_14_413
*1368 FILLER_14_420
*1369 FILLER_14_427
*1370 FILLER_14_429
*1371 FILLER_15_0
*1372 FILLER_15_7
*1373 FILLER_15_14
*1374 FILLER_15_21
*1375 FILLER_15_28
*1376 FILLER_15_35
*1377 FILLER_15_42
*1378 FILLER_15_49
*1379 FILLER_15_56
*1380 FILLER_15_63
*1381 FILLER_15_70
*1382 FILLER_15_77
*1383 FILLER_15_84
*1384 FILLER_15_91
*1385 FILLER_15_98
*1386 FILLER_15_105
*1387 FILLER_15_112
*1388 FILLER_15_119
*1389 FILLER_15_126
*1390 FILLER_15_133
*1391 FILLER_15_140
*1392 FILLER_15_147
*1393 FILLER_15_154
*1394 FILLER_15_161
*1395 FILLER_15_168
*1396 FILLER_15_175
*1397 FILLER_15_182
*1398 FILLER_15_189
*1399 FILLER_15_196
*1400 FILLER_15_203
*1401 FILLER_15_210
*1402 FILLER_15_217
*1403 FILLER_15_224
*1404 FILLER_15_231
*1405 FILLER_15_238
*1406 FILLER_15_245
*1407 FILLER_15_252
*1408 FILLER_15_259
*1409 FILLER_15_266
*1410 FILLER_15_273
*1411 FILLER_15_280
*1412 FILLER_15_287
*1413 FILLER_15_294
*1414 FILLER_15_301
*1415 FILLER_15_308
*1416 FILLER_15_315
*1417 FILLER_15_322
*1418 FILLER_15_329
*1419 FILLER_15_336
*1420 FILLER_15_343
*1421 FILLER_15_350
*1422 FILLER_15_357
*1423 FILLER_15_364
*1424 FILLER_15_371
*1425 FILLER_15_378
*1426 FILLER_15_385
*1427 FILLER_15_392
*1428 FILLER_15_399
*1429 FILLER_15_406
*1430 FILLER_15_413
*1431 FILLER_15_420
*1432 FILLER_15_427
*1433 FILLER_15_429
*1434 FILLER_16_0
*1435 FILLER_16_7
*1436 FILLER_16_14
*1437 FILLER_16_21
*1438 FILLER_16_28
*1439 FILLER_16_35
*1440 FILLER_16_42
*1441 FILLER_16_49
*1442 FILLER_16_56
*1443 FILLER_16_63
*1444 FILLER_16_70
*1445 FILLER_16_77
*1446 FILLER_16_84
*1447 FILLER_16_91
*1448 FILLER_16_98
*1449 FILLER_16_105
*1450 FILLER_16_112
*1451 FILLER_16_119
*1452 FILLER_16_126
*1453 FILLER_16_133
*1454 FILLER_16_140
*1455 FILLER_16_147
*1456 FILLER_16_154
*1457 FILLER_16_161
*1458 FILLER_16_168
*1459 FILLER_16_175
*1460 FILLER_16_182
*1461 FILLER_16_189
*1462 FILLER_16_196
*1463 FILLER_16_203
*1464 FILLER_16_210
*1465 FILLER_16_217
*1466 FILLER_16_224
*1467 FILLER_16_231
*1468 FILLER_16_238
*1469 FILLER_16_245
*1470 FILLER_16_252
*1471 FILLER_16_259
*1472 FILLER_16_266
*1473 FILLER_16_273
*1474 FILLER_16_280
*1475 FILLER_16_287
*1476 FILLER_16_294
*1477 FILLER_16_301
*1478 FILLER_16_308
*1479 FILLER_16_315
*1480 FILLER_16_322
*1481 FILLER_16_329
*1482 FILLER_16_336
*1483 FILLER_16_343
*1484 FILLER_16_350
*1485 FILLER_16_357
*1486 FILLER_16_364
*1487 FILLER_16_371
*1488 FILLER_16_378
*1489 FILLER_16_385
*1490 FILLER_16_392
*1491 FILLER_16_399
*1492 FILLER_16_406
*1493 FILLER_16_413
*1494 FILLER_16_420
*1495 FILLER_16_427
*1496 FILLER_16_429
*1497 FILLER_17_0
*1498 FILLER_17_7
*1499 FILLER_17_14
*1500 FILLER_17_21
*1501 FILLER_17_28
*1502 FILLER_17_35
*1503 FILLER_17_42
*1504 FILLER_17_49
*1505 FILLER_17_56
*1506 FILLER_17_63
*1507 FILLER_17_70
*1508 FILLER_17_77
*1509 FILLER_17_84
*1510 FILLER_17_91
*1511 FILLER_17_98
*1512 FILLER_17_105
*1513 FILLER_17_112
*1514 FILLER_17_119
*1515 FILLER_17_126
*1516 FILLER_17_133
*1517 FILLER_17_140
*1518 FILLER_17_147
*1519 FILLER_17_154
*1520 FILLER_17_161
*1521 FILLER_17_168
*1522 FILLER_17_175
*1523 FILLER_17_182
*1524 FILLER_17_189
*1525 FILLER_17_196
*1526 FILLER_17_203
*1527 FILLER_17_210
*1528 FILLER_17_217
*1529 FILLER_17_224
*1530 FILLER_17_231
*1531 FILLER_17_238
*1532 FILLER_17_245
*1533 FILLER_17_252
*1534 FILLER_17_259