*SPEF "ieee 1481-1999"
*DESIGN "tt_um_dlmiles_loopback"
*DATE "21:18:22 Sunday November 03, 2024"
*VENDOR "The OpenROAD Project"
*PROGRAM "OpenROAD"
*VERSION "v2.0-16649-g40811f37f"
*DESIGN_FLOW "NAME_SCOPE LOCAL" "PIN_CAP NONE"
*DIVIDER /
*DELIMITER :
*BUS_DELIMITER []
*T_UNIT 1 NS
*C_UNIT 1 PF
*R_UNIT 1 OHM
*L_UNIT 1 HENRY

*NAME_MAP
*1 D
*2 Qj
*3 Qn
*4 Qp
*5 _00_
*6 _01_
*7 _02_
*8 _03_
*9 _04_
*10 _05_
*11 _06_
*12 _07_
*13 _08_
*14 _09_
*15 _10_
*16 _11_
*17 _12_
*18 _13_
*19 _14_
*20 _15_
*21 _16_
*22 _17_
*23 _18_
*24 _19_
*25 _20_
*26 _21_
*27 _22_
*28 _23_
*29 _24_
*30 _25_
*31 _26_
*32 _27_
*33 _28_
*34 _29_
*35 _30_
*36 _31_
*37 _32_
*38 _33_
*39 clknet_0_clk
*40 bypass
*41 clk
*42 default_mode_n
*43 dffp\.CLK
*44 ena
*45 rdffe_jitter\.D
*46 rdffe_uio\[0\]\.FF
*47 rdffe_uio\[1\]\.FF
*48 rdffe_uio\[2\]\.FF
*49 rdffe_uio\[3\]\.FF
*50 rdffe_uio\[4\]\.FF
*51 rdffe_uio\[5\]\.FF
*52 rst_n
*53 ui_in[0]
*54 ui_in[1]
*55 ui_in[2]
*56 ui_in[3]
*57 ui_in[4]
*58 ui_in[5]
*59 ui_in[6]
*60 ui_in[7]
*61 uio_in[0]
*62 uio_in[1]
*63 uio_in[2]
*64 uio_in[3]
*65 uio_in[4]
*66 uio_in[5]
*67 uio_in[6]
*68 uio_in[7]
*69 uio_oe[0]
*70 uio_oe[1]
*71 uio_oe[2]
*72 uio_oe[3]
*73 uio_oe[4]
*74 uio_oe[5]
*75 uio_oe[6]
*76 uio_oe[7]
*77 uio_out[0]
*78 uio_out[1]
*79 uio_out[2]
*80 uio_out[3]
*81 uio_out[4]
*82 uio_out[5]
*83 uio_out[6]
*84 uio_out[7]
*85 uo_out[0]
*86 uo_out[1]
*87 uo_out[2]
*88 uo_out[3]
*89 uo_out[4]
*90 uo_out[5]
*91 uo_out[6]
*92 uo_out[7]
*95 net1
*96 net2
*97 net3
*98 net4
*99 net5
*100 net6
*101 net7
*102 net8
*103 net9
*104 net10
*105 net11
*106 net12
*107 net13
*108 net14
*109 net15
*110 net16
*111 net17
*112 net18
*113 net19
*114 net20
*115 net21
*116 net22
*117 net23
*118 net24
*119 net25
*120 net26
*121 net27
*122 net28
*123 net29
*124 net30
*125 net31
*126 net32
*127 net33
*128 net34
*129 net35
*130 net36
*131 net37
*132 net38
*133 net39
*134 net40
*135 net41
*136 net42
*137 net43
*138 net44
*139 net45
*140 net46
*141 net47
*142 clknet_1_0__leaf_clk
*143 clknet_1_1__leaf_clk
*144 _35_
*145 _36_
*146 _37_
*147 _38_
*148 _39_
*149 _40_
*150 _41_
*151 _42_
*152 _43_
*153 _44_
*154 _45_
*155 _46_
*156 _47_
*157 _48_
*158 _49_
*159 _50_
*160 _51_
*161 _52_
*162 _53_
*163 _54_
*164 _55_
*165 _56_
*166 _57_
*167 _58_
*168 _59_
*169 _60_
*170 _61_
*171 _62_
*172 _63_
*173 _64_
*174 _65_
*175 clkbuf_0_clk
*176 _67_
*177 _68_
*178 _69_
*179 _70_
*180 _71_
*181 _72_
*182 _73_
*183 _74_
*184 _75_
*185 _76_
*186 _77_
*187 _78_
*188 _79_
*189 _80_
*190 _81_
*191 _82_
*192 _83_
*193 _84_
*194 _85_
*195 dffn\.FF\$_DFF_N_
*196 dffp\.FF\$_DFF_P_
*197 rdffe_jitter\.FF\$_DFFE_PN0P_
*198 rdffe_uio\[0\]\.FF\$_DFFE_PN0P_
*199 rdffe_uio\[1\]\.FF\$_DFFE_PN0P_
*200 rdffe_uio\[2\]\.FF\$_DFFE_PN0P_
*201 rdffe_uio\[3\]\.FF\$_DFFE_PN0P_
*202 rdffe_uio\[4\]\.FF\$_DFFE_PN0P_
*203 rdffe_uio\[5\]\.FF\$_DFFE_PN0P_
*204 rdffe_uio\[6\]\.FF\$_DFFE_PN0P_
*205 rdffe_uio\[7\]\.FF\$_DFFE_PN0P_
*206 input1
*207 input2
*208 input3
*209 input4
*210 input5
*211 input6
*212 input7
*213 input8
*214 input9
*215 input10
*216 input11
*217 input12
*218 input13
*219 input14
*220 input15
*221 input16
*222 input17
*223 input18
*224 output19
*225 output20
*226 output21
*227 output22
*228 output23
*229 output24
*230 output25
*231 output26
*232 output27
*233 output28
*234 output29
*235 output30
*236 output31
*237 output32
*238 output33
*239 output34
*240 output35
*241 output36
*242 output37
*243 output38
*244 output39
*245 output40
*246 output41
*247 output42
*248 fanout43
*249 fanout44
*250 fanout45
*251 dffn\.FF\$_DFF_N__46
*252 dffp\.FF\$_DFF_P__47
*253 clkbuf_1_0__f_clk
*254 clkbuf_1_1__f_clk
*255 clkload0
*256 FILLER_0_0
*257 FILLER_0_7
*258 FILLER_0_14
*259 FILLER_0_21
*260 FILLER_0_28
*261 FILLER_0_35
*262 FILLER_0_42
*263 FILLER_0_49
*264 FILLER_0_56
*265 FILLER_0_63
*266 FILLER_0_70
*267 FILLER_0_77
*268 FILLER_0_84
*269 FILLER_0_91
*270 FILLER_0_98
*271 FILLER_0_105
*272 FILLER_0_112
*273 FILLER_0_119
*274 FILLER_0_126
*275 FILLER_0_133
*276 FILLER_0_140
*277 FILLER_0_147
*278 FILLER_0_154
*279 FILLER_0_161
*280 FILLER_0_168
*281 FILLER_0_175
*282 FILLER_0_182
*283 FILLER_0_189
*284 FILLER_0_196
*285 FILLER_0_203
*286 FILLER_0_210
*287 FILLER_0_217
*288 FILLER_0_224
*289 FILLER_0_231
*290 FILLER_0_238
*291 FILLER_0_245
*292 FILLER_0_252
*293 FILLER_0_259
*294 FILLER_0_266
*295 FILLER_0_273
*296 FILLER_0_280
*297 FILLER_0_287
*298 FILLER_0_294
*299 FILLER_0_301
*300 FILLER_0_308
*301 FILLER_0_315
*302 FILLER_0_322
*303 FILLER_0_329
*304 FILLER_0_336
*305 FILLER_0_343
*306 FILLER_0_350
*307 FILLER_0_357
*308 FILLER_0_364
*309 FILLER_0_371
*310 FILLER_0_378
*311 FILLER_0_385
*312 FILLER_0_392
*313 FILLER_0_399
*314 FILLER_0_406
*315 FILLER_0_413
*316 FILLER_0_420
*317 FILLER_0_427
*318 FILLER_0_429
*319 FILLER_1_0
*320 FILLER_1_7
*321 FILLER_1_14
*322 FILLER_1_21
*323 FILLER_1_28
*324 FILLER_1_35
*325 FILLER_1_42
*326 FILLER_1_49
*327 FILLER_1_56
*328 FILLER_1_63
*329 FILLER_1_70
*330 FILLER_1_77
*331 FILLER_1_84
*332 FILLER_1_91
*333 FILLER_1_98
*334 FILLER_1_105
*335 FILLER_1_112
*336 FILLER_1_119
*337 FILLER_1_126
*338 FILLER_1_133
*339 FILLER_1_140
*340 FILLER_1_147
*341 FILLER_1_154
*342 FILLER_1_161
*343 FILLER_1_168
*344 FILLER_1_175
*345 FILLER_1_182
*346 FILLER_1_189
*347 FILLER_1_196
*348 FILLER_1_203
*349 FILLER_1_210
*350 FILLER_1_217
*351 FILLER_1_224
*352 FILLER_1_231
*353 FILLER_1_238
*354 FILLER_1_245
*355 FILLER_1_252
*356 FILLER_1_259
*357 FILLER_1_266
*358 FILLER_1_273
*359 FILLER_1_280
*360 FILLER_1_287
*361 FILLER_1_294
*362 FILLER_1_301
*363 FILLER_1_308
*364 FILLER_1_315
*365 FILLER_1_322
*366 FILLER_1_329
*367 FILLER_1_336
*368 FILLER_1_343
*369 FILLER_1_350
*370 FILLER_1_357
*371 FILLER_1_364
*372 FILLER_1_371
*373 FILLER_1_378
*374 FILLER_1_385
*375 FILLER_1_392
*376 FILLER_1_399
*377 FILLER_1_406
*378 FILLER_1_413
*379 FILLER_1_420
*380 FILLER_1_427
*381 FILLER_1_429
*382 FILLER_2_0
*383 FILLER_2_7
*384 FILLER_2_14
*385 FILLER_2_21
*386 FILLER_2_28
*387 FILLER_2_35
*388 FILLER_2_42
*389 FILLER_2_49
*390 FILLER_2_56
*391 FILLER_2_63
*392 FILLER_2_70
*393 FILLER_2_77
*394 FILLER_2_84
*395 FILLER_2_91
*396 FILLER_2_98
*397 FILLER_2_105
*398 FILLER_2_112
*399 FILLER_2_119
*400 FILLER_2_126
*401 FILLER_2_133
*402 FILLER_2_140
*403 FILLER_2_147
*404 FILLER_2_154
*405 FILLER_2_161
*406 FILLER_2_168
*407 FILLER_2_175
*408 FILLER_2_182
*409 FILLER_2_189
*410 FILLER_2_196
*411 FILLER_2_203
*412 FILLER_2_210
*413 FILLER_2_217
*414 FILLER_2_224
*415 FILLER_2_231
*416 FILLER_2_238
*417 FILLER_2_245
*418 FILLER_2_252
*419 FILLER_2_259
*420 FILLER_2_266
*421 FILLER_2_273
*422 FILLER_2_280
*423 FILLER_2_287
*424 FILLER_2_294
*425 FILLER_2_301
*426 FILLER_2_308
*427 FILLER_2_315
*428 FILLER_2_322
*429 FILLER_2_329
*430 FILLER_2_336
*431 FILLER_2_343
*432 FILLER_2_350
*433 FILLER_2_357
*434 FILLER_2_364
*435 FILLER_2_371
*436 FILLER_2_378
*437 FILLER_2_385
*438 FILLER_2_392
*439 FILLER_2_399
*440 FILLER_2_406
*441 FILLER_2_413
*442 FILLER_2_420
*443 FILLER_2_427
*444 FILLER_2_429
*445 FILLER_3_0
*446 FILLER_3_7
*447 FILLER_3_14
*448 FILLER_3_21
*449 FILLER_3_28
*450 FILLER_3_35
*451 FILLER_3_42
*452 FILLER_3_49
*453 FILLER_3_56
*454 FILLER_3_63
*455 FILLER_3_70
*456 FILLER_3_77
*457 FILLER_3_84
*458 FILLER_3_91
*459 FILLER_3_98
*460 FILLER_3_105
*461 FILLER_3_112
*462 FILLER_3_119
*463 FILLER_3_126
*464 FILLER_3_133
*465 FILLER_3_140
*466 FILLER_3_147
*467 FILLER_3_154
*468 FILLER_3_161
*469 FILLER_3_168
*470 FILLER_3_175
*471 FILLER_3_182
*472 FILLER_3_189
*473 FILLER_3_196
*474 FILLER_3_203
*475 FILLER_3_210
*476 FILLER_3_217
*477 FILLER_3_224
*478 FILLER_3_231
*479 FILLER_3_238
*480 FILLER_3_245
*481 FILLER_3_252
*482 FILLER_3_259
*483 FILLER_3_266
*484 FILLER_3_273
*485 FILLER_3_280
*486 FILLER_3_287
*487 FILLER_3_294
*488 FILLER_3_301
*489 FILLER_3_308
*490 FILLER_3_315
*491 FILLER_3_322
*492 FILLER_3_329
*493 FILLER_3_336
*494 FILLER_3_343
*495 FILLER_3_350
*496 FILLER_3_357
*497 FILLER_3_364
*498 FILLER_3_371
*499 FILLER_3_378
*500 FILLER_3_385
*501 FILLER_3_392
*502 FILLER_3_399
*503 FILLER_3_406
*504 FILLER_3_413
*505 FILLER_3_420
*506 FILLER_3_427
*507 FILLER_3_429
*508 FILLER_4_0
*509 FILLER_4_7
*510 FILLER_4_14
*511 FILLER_4_21
*512 FILLER_4_28
*513 FILLER_4_35
*514 FILLER_4_42
*515 FILLER_4_49
*516 FILLER_4_56
*517 FILLER_4_63
*518 FILLER_4_70
*519 FILLER_4_77
*520 FILLER_4_84
*521 FILLER_4_91
*522 FILLER_4_98
*523 FILLER_4_105
*524 FILLER_4_112
*525 FILLER_4_119
*526 FILLER_4_126
*527 FILLER_4_133
*528 FILLER_4_140
*529 FILLER_4_147
*530 FILLER_4_154
*531 FILLER_4_161
*532 FILLER_4_168
*533 FILLER_4_175
*534 FILLER_4_182
*535 FILLER_4_189
*536 FILLER_4_196
*537 FILLER_4_203
*538 FILLER_4_210
*539 FILLER_4_217
*540 FILLER_4_224
*541 FILLER_4_231
*542 FILLER_4_238
*543 FILLER_4_245
*544 FILLER_4_252
*545 FILLER_4_259
*546 FILLER_4_266
*547 FILLER_4_273
*548 FILLER_4_280
*549 FILLER_4_287
*550 FILLER_4_294
*551 FILLER_4_301
*552 FILLER_4_308
*553 FILLER_4_315
*554 FILLER_4_322
*555 FILLER_4_329
*556 FILLER_4_336
*557 FILLER_4_343
*558 FILLER_4_350
*559 FILLER_4_357
*560 FILLER_4_364
*561 FILLER_4_371
*562 FILLER_4_378
*563 FILLER_4_385
*564 FILLER_4_392
*565 FILLER_4_399
*566 FILLER_4_406
*567 FILLER_4_413
*568 FILLER_4_420
*569 FILLER_4_427
*570 FILLER_4_429
*571 FILLER_5_0
*572 FILLER_5_7
*573 FILLER_5_14
*574 FILLER_5_21
*575 FILLER_5_28
*576 FILLER_5_35
*577 FILLER_5_42
*578 FILLER_5_49
*579 FILLER_5_56
*580 FILLER_5_63
*581 FILLER_5_70
*582 FILLER_5_77
*583 FILLER_5_84
*584 FILLER_5_91
*585 FILLER_5_98
*586 FILLER_5_105
*587 FILLER_5_112
*588 FILLER_5_119
*589 FILLER_5_126
*590 FILLER_5_133
*591 FILLER_5_140
*592 FILLER_5_147
*593 FILLER_5_154
*594 FILLER_5_161
*595 FILLER_5_168
*596 FILLER_5_175
*597 FILLER_5_182
*598 FILLER_5_189
*599 FILLER_5_196
*600 FILLER_5_203
*601 FILLER_5_210
*602 FILLER_5_217
*603 FILLER_5_224
*604 FILLER_5_231
*605 FILLER_5_238
*606 FILLER_5_245
*607 FILLER_5_252
*608 FILLER_5_259
*609 FILLER_5_266
*610 FILLER_5_273
*611 FILLER_5_280
*612 FILLER_5_287
*613 FILLER_5_294
*614 FILLER_5_301
*615 FILLER_5_308
*616 FILLER_5_315
*617 FILLER_5_322
*618 FILLER_5_329
*619 FILLER_5_336
*620 FILLER_5_343
*621 FILLER_5_350
*622 FILLER_5_357
*623 FILLER_5_364
*624 FILLER_5_371
*625 FILLER_5_378
*626 FILLER_5_385
*627 FILLER_5_392
*628 FILLER_5_399
*629 FILLER_5_406
*630 FILLER_5_413
*631 FILLER_5_420
*632 FILLER_5_427
*633 FILLER_5_429
*634 FILLER_6_0
*635 FILLER_6_7
*636 FILLER_6_14
*637 FILLER_6_21
*638 FILLER_6_28
*639 FILLER_6_35
*640 FILLER_6_42
*641 FILLER_6_49
*642 FILLER_6_56
*643 FILLER_6_63
*644 FILLER_6_70
*645 FILLER_6_77
*646 FILLER_6_84
*647 FILLER_6_91
*648 FILLER_6_98
*649 FILLER_6_105
*650 FILLER_6_112
*651 FILLER_6_119
*652 FILLER_6_126
*653 FILLER_6_133
*654 FILLER_6_140
*655 FILLER_6_147
*656 FILLER_6_154
*657 FILLER_6_161
*658 FILLER_6_168
*659 FILLER_6_175
*660 FILLER_6_182
*661 FILLER_6_189
*662 FILLER_6_196
*663 FILLER_6_203
*664 FILLER_6_210
*665 FILLER_6_217
*666 FILLER_6_224
*667 FILLER_6_231
*668 FILLER_6_238
*669 FILLER_6_245
*670 FILLER_6_252
*671 FILLER_6_259
*672 FILLER_6_266
*673 FILLER_6_273
*674 FILLER_6_280
*675 FILLER_6_287
*676 FILLER_6_294
*677 FILLER_6_301
*678 FILLER_6_308
*679 FILLER_6_315
*680 FILLER_6_322
*681 FILLER_6_329
*682 FILLER_6_336
*683 FILLER_6_343
*684 FILLER_6_350
*685 FILLER_6_357
*686 FILLER_6_364
*687 FILLER_6_371
*688 FILLER_6_378
*689 FILLER_6_385
*690 FILLER_6_392
*691 FILLER_6_399
*692 FILLER_6_406
*693 FILLER_6_413
*694 FILLER_6_420
*695 FILLER_6_427
*696 FILLER_6_429
*697 FILLER_7_0
*698 FILLER_7_7
*699 FILLER_7_14
*700 FILLER_7_21
*701 FILLER_7_28
*702 FILLER_7_35
*703 FILLER_7_42
*704 FILLER_7_49
*705 FILLER_7_56
*706 FILLER_7_63
*707 FILLER_7_70
*708 FILLER_7_77
*709 FILLER_7_84
*710 FILLER_7_91
*711 FILLER_7_98
*712 FILLER_7_105
*713 FILLER_7_112
*714 FILLER_7_119
*715 FILLER_7_126
*716 FILLER_7_133
*717 FILLER_7_140
*718 FILLER_7_147
*719 FILLER_7_154
*720 FILLER_7_161
*721 FILLER_7_168
*722 FILLER_7_175
*723 FILLER_7_182
*724 FILLER_7_189
*725 FILLER_7_196
*726 FILLER_7_203
*727 FILLER_7_210
*728 FILLER_7_217
*729 FILLER_7_224
*730 FILLER_7_231
*731 FILLER_7_238
*732 FILLER_7_245
*733 FILLER_7_252
*734 FILLER_7_259
*735 FILLER_7_266
*736 FILLER_7_273
*737 FILLER_7_280
*738 FILLER_7_287
*739 FILLER_7_294
*740 FILLER_7_301
*741 FILLER_7_308
*742 FILLER_7_315
*743 FILLER_7_322
*744 FILLER_7_329
*745 FILLER_7_336
*746 FILLER_7_343
*747 FILLER_7_350
*748 FILLER_7_357
*749 FILLER_7_364
*750 FILLER_7_371
*751 FILLER_7_378
*752 FILLER_7_385
*753 FILLER_7_392
*754 FILLER_7_399
*755 FILLER_7_406
*756 FILLER_7_413
*757 FILLER_7_420
*758 FILLER_7_427
*759 FILLER_7_429
*760 FILLER_8_0
*761 FILLER_8_7
*762 FILLER_8_14
*763 FILLER_8_21
*764 FILLER_8_28
*765 FILLER_8_35
*766 FILLER_8_42
*767 FILLER_8_49
*768 FILLER_8_56
*769 FILLER_8_63
*770 FILLER_8_70
*771 FILLER_8_77
*772 FILLER_8_84
*773 FILLER_8_91
*774 FILLER_8_98
*775 FILLER_8_105
*776 FILLER_8_112
*777 FILLER_8_119
*778 FILLER_8_126
*779 FILLER_8_133
*780 FILLER_8_140
*781 FILLER_8_147
*782 FILLER_8_154
*783 FILLER_8_161
*784 FILLER_8_168
*785 FILLER_8_175
*786 FILLER_8_182
*787 FILLER_8_189
*788 FILLER_8_196
*789 FILLER_8_203
*790 FILLER_8_210
*791 FILLER_8_217
*792 FILLER_8_224
*793 FILLER_8_231
*794 FILLER_8_238
*795 FILLER_8_245
*796 FILLER_8_252
*797 FILLER_8_259
*798 FILLER_8_266
*799 FILLER_8_273
*800 FILLER_8_280
*801 FILLER_8_287
*802 FILLER_8_294
*803 FILLER_8_301
*804 FILLER_8_308
*805 FILLER_8_315
*806 FILLER_8_322
*807 FILLER_8_329
*808 FILLER_8_336
*809 FILLER_8_343
*810 FILLER_8_350
*811 FILLER_8_357
*812 FILLER_8_364
*813 FILLER_8_371
*814 FILLER_8_378
*815 FILLER_8_385
*816 FILLER_8_392
*817 FILLER_8_399
*818 FILLER_8_406
*819 FILLER_8_413
*820 FILLER_8_420
*821 FILLER_8_427
*822 FILLER_8_429
*823 FILLER_9_0
*824 FILLER_9_7
*825 FILLER_9_14
*826 FILLER_9_21
*827 FILLER_9_28
*828 FILLER_9_35
*829 FILLER_9_42
*830 FILLER_9_49
*831 FILLER_9_56
*832 FILLER_9_63
*833 FILLER_9_70
*834 FILLER_9_77
*835 FILLER_9_84
*836 FILLER_9_91
*837 FILLER_9_98
*838 FILLER_9_105
*839 FILLER_9_112
*840 FILLER_9_119
*841 FILLER_9_126
*842 FILLER_9_133
*843 FILLER_9_140
*844 FILLER_9_147
*845 FILLER_9_154
*846 FILLER_9_161
*847 FILLER_9_168
*848 FILLER_9_175
*849 FILLER_9_182
*850 FILLER_9_189
*851 FILLER_9_196
*852 FILLER_9_203
*853 FILLER_9_210
*854 FILLER_9_217
*855 FILLER_9_224
*856 FILLER_9_231
*857 FILLER_9_238
*858 FILLER_9_245
*859 FILLER_9_252
*860 FILLER_9_259
*861 FILLER_9_266
*862 FILLER_9_273
*863 FILLER_9_280
*864 FILLER_9_287
*865 FILLER_9_294
*866 FILLER_9_301
*867 FILLER_9_308
*868 FILLER_9_315
*869 FILLER_9_322
*870 FILLER_9_329
*871 FILLER_9_336
*872 FILLER_9_343
*873 FILLER_9_350
*874 FILLER_9_357
*875 FILLER_9_364
*876 FILLER_9_371
*877 FILLER_9_378
*878 FILLER_9_385
*879 FILLER_9_392
*880 FILLER_9_399
*881 FILLER_9_406
*882 FILLER_9_413
*883 FILLER_9_420
*884 FILLER_9_427
*885 FILLER_9_429
*886 FILLER_10_0
*887 FILLER_10_7
*888 FILLER_10_14
*889 FILLER_10_21
*890 FILLER_10_28
*891 FILLER_10_35
*892 FILLER_10_42
*893 FILLER_10_49
*894 FILLER_10_56
*895 FILLER_10_63
*896 FILLER_10_70
*897 FILLER_10_77
*898 FILLER_10_84
*899 FILLER_10_91
*900 FILLER_10_98
*901 FILLER_10_105
*902 FILLER_10_112
*903 FILLER_10_119
*904 FILLER_10_126
*905 FILLER_10_133
*906 FILLER_10_140
*907 FILLER_10_147
*908 FILLER_10_154
*909 FILLER_10_161
*910 FILLER_10_168
*911 FILLER_10_175
*912 FILLER_10_182
*913 FILLER_10_189
*914 FILLER_10_196
*915 FILLER_10_203
*916 FILLER_10_210
*917 FILLER_10_217
*918 FILLER_10_224
*919 FILLER_10_231
*920 FILLER_10_238
*921 FILLER_10_245
*922 FILLER_10_252
*923 FILLER_10_259
*924 FILLER_10_266
*925 FILLER_10_273
*926 FILLER_10_280
*927 FILLER_10_287
*928 FILLER_10_294
*929 FILLER_10_301
*930 FILLER_10_308
*931 FILLER_10_315
*932 FILLER_10_322
*933 FILLER_10_329
*934 FILLER_10_336
*935 FILLER_10_343
*936 FILLER_10_350
*937 FILLER_10_357
*938 FILLER_10_364
*939 FILLER_10_371
*940 FILLER_10_378
*941 FILLER_10_385
*942 FILLER_10_392
*943 FILLER_10_399
*944 FILLER_10_406
*945 FILLER_10_413
*946 FILLER_10_420
*947 FILLER_10_427
*948 FILLER_10_429
*949 FILLER_11_0
*950 FILLER_11_7
*951 FILLER_11_14
*952 FILLER_11_21
*953 FILLER_11_28
*954 FILLER_11_35
*955 FILLER_11_42
*956 FILLER_11_49
*957 FILLER_11_56
*958 FILLER_11_63
*959 FILLER_11_70
*960 FILLER_11_77
*961 FILLER_11_84
*962 FILLER_11_91
*963 FILLER_11_98
*964 FILLER_11_105
*965 FILLER_11_112
*966 FILLER_11_119
*967 FILLER_11_126
*968 FILLER_11_133
*969 FILLER_11_140
*970 FILLER_11_147
*971 FILLER_11_154
*972 FILLER_11_161
*973 FILLER_11_168
*974 FILLER_11_175
*975 FILLER_11_182
*976 FILLER_11_189
*977 FILLER_11_196
*978 FILLER_11_203
*979 FILLER_11_210
*980 FILLER_11_217
*981 FILLER_11_224
*982 FILLER_11_231
*983 FILLER_11_238
*984 FILLER_11_245
*985 FILLER_11_252
*986 FILLER_11_259
*987 FILLER_11_266
*988 FILLER_11_273
*989 FILLER_11_280
*990 FILLER_11_287
*991 FILLER_11_294
*992 FILLER_11_301
*993 FILLER_11_308
*994 FILLER_11_315
*995 FILLER_11_322
*996 FILLER_11_329
*997 FILLER_11_336
*998 FILLER_11_343
*999 FILLER_11_350
*1000 FILLER_11_357
*1001 FILLER_11_364
*1002 FILLER_11_371
*1003 FILLER_11_378
*1004 FILLER_11_385
*1005 FILLER_11_392
*1006 FILLER_11_399
*1007 FILLER_11_406
*1008 FILLER_11_413
*1009 FILLER_11_420
*1010 FILLER_11_427
*1011 FILLER_11_429
*1012 FILLER_12_0
*1013 FILLER_12_7
*1014 FILLER_12_14
*1015 FILLER_12_21
*1016 FILLER_12_28
*1017 FILLER_12_35
*1018 FILLER_12_42
*1019 FILLER_12_49
*1020 FILLER_12_56
*1021 FILLER_12_63
*1022 FILLER_12_70
*1023 FILLER_12_77
*1024 FILLER_12_84
*1025 FILLER_12_91
*1026 FILLER_12_98
*1027 FILLER_12_105
*1028 FILLER_12_112
*1029 FILLER_12_119
*1030 FILLER_12_126
*1031 FILLER_12_133
*1032 FILLER_12_140
*1033 FILLER_12_147
*1034 FILLER_12_154
*1035 FILLER_12_161
*1036 FILLER_12_168
*1037 FILLER_12_175
*1038 FILLER_12_182
*1039 FILLER_12_189
*1040 FILLER_12_196
*1041 FILLER_12_203
*1042 FILLER_12_210
*1043 FILLER_12_217
*1044 FILLER_12_224
*1045 FILLER_12_231
*1046 FILLER_12_238
*1047 FILLER_12_245
*1048 FILLER_12_252
*1049 FILLER_12_259
*1050 FILLER_12_266
*1051 FILLER_12_273
*1052 FILLER_12_280
*1053 FILLER_12_287
*1054 FILLER_12_294
*1055 FILLER_12_301
*1056 FILLER_12_308
*1057 FILLER_12_315
*1058 FILLER_12_322
*1059 FILLER_12_329
*1060 FILLER_12_336
*1061 FILLER_12_343
*1062 FILLER_12_350
*1063 FILLER_12_357
*1064 FILLER_12_364
*1065 FILLER_12_371
*1066 FILLER_12_378
*1067 FILLER_12_385
*1068 FILLER_12_392
*1069 FILLER_12_399
*1070 FILLER_12_406
*1071 FILLER_12_413
*1072 FILLER_12_420
*1073 FILLER_12_427
*1074 FILLER_12_429
*1075 FILLER_13_0
*1076 FILLER_13_7
*1077 FILLER_13_14
*1078 FILLER_13_21
*1079 FILLER_13_28
*1080 FILLER_13_35
*1081 FILLER_13_42
*1082 FILLER_13_49
*1083 FILLER_13_56
*1084 FILLER_13_63
*1085 FILLER_13_70
*1086 FILLER_13_77
*1087 FILLER_13_84
*1088 FILLER_13_91
*1089 FILLER_13_98
*1090 FILLER_13_105
*1091 FILLER_13_112
*1092 FILLER_13_119
*1093 FILLER_13_126
*1094 FILLER_13_133
*1095 FILLER_13_140
*1096 FILLER_13_147
*1097 FILLER_13_154
*1098 FILLER_13_161
*1099 FILLER_13_168
*1100 FILLER_13_175
*1101 FILLER_13_182
*1102 FILLER_13_189
*1103 FILLER_13_196
*1104 FILLER_13_203
*1105 FILLER_13_210
*1106 FILLER_13_217
*1107 FILLER_13_224
*1108 FILLER_13_231
*1109 FILLER_13_238
*1110 FILLER_13_245
*1111 FILLER_13_252
*1112 FILLER_13_259
*1113 FILLER_13_266
*1114 FILLER_13_273
*1115 FILLER_13_280
*1116 FILLER_13_287
*1117 FILLER_13_294
*1118 FILLER_13_301
*1119 FILLER_13_308
*1120 FILLER_13_315
*1121 FILLER_13_322
*1122 FILLER_13_329
*1123 FILLER_13_336
*1124 FILLER_13_343
*1125 FILLER_13_350
*1126 FILLER_13_357
*1127 FILLER_13_364
*1128 FILLER_13_371
*1129 FILLER_13_378
*1130 FILLER_13_385
*1131 FILLER_13_392
*1132 FILLER_13_399
*1133 FILLER_13_406
*1134 FILLER_13_413
*1135 FILLER_13_420
*1136 FILLER_13_427
*1137 FILLER_13_429
*1138 FILLER_14_0
*1139 FILLER_14_7
*1140 FILLER_14_14
*1141 FILLER_14_21
*1142 FILLER_14_28
*1143 FILLER_14_35
*1144 FILLER_14_42
*1145 FILLER_14_49
*1146 FILLER_14_56
*1147 FILLER_14_63
*1148 FILLER_14_70
*1149 FILLER_14_77
*1150 FILLER_14_84
*1151 FILLER_14_91
*1152 FILLER_14_98
*1153 FILLER_14_105
*1154 FILLER_14_112
*1155 FILLER_14_119
*1156 FILLER_14_126
*1157 FILLER_14_133
*1158 FILLER_14_140
*1159 FILLER_14_147
*1160 FILLER_14_154
*1161 FILLER_14_161
*1162 FILLER_14_168
*1163 FILLER_14_175
*1164 FILLER_14_182
*1165 FILLER_14_189
*1166 FILLER_14_196
*1167 FILLER_14_203
*1168 FILLER_14_210
*1169 FILLER_14_217
*1170 FILLER_14_224
*1171 FILLER_14_231
*1172 FILLER_14_238
*1173 FILLER_14_245
*1174 FILLER_14_252
*1175 FILLER_14_259
*1176 FILLER_14_266
*1177 FILLER_14_273
*1178 FILLER_14_280
*1179 FILLER_14_287
*1180 FILLER_14_294
*1181 FILLER_14_301
*1182 FILLER_14_308
*1183 FILLER_14_315
*1184 FILLER_14_322
*1185 FILLER_14_329
*1186 FILLER_14_336
*1187 FILLER_14_343
*1188 FILLER_14_350
*1189 FILLER_14_357
*1190 FILLER_14_364
*1191 FILLER_14_371
*1192 FILLER_14_378
*1193 FILLER_14_385
*1194 FILLER_14_392
*1195 FILLER_14_399
*1196 FILLER_14_406
*1197 FILLER_14_413
*1198 FILLER_14_420
*1199 FILLER_14_427
*1200 FILLER_14_429
*1201 FILLER_15_0
*1202 FILLER_15_7
*1203 FILLER_15_14
*1204 FILLER_15_21
*1205 FILLER_15_28
*1206 FILLER_15_35
*1207 FILLER_15_42
*1208 FILLER_15_49
*1209 FILLER_15_56
*1210 FILLER_15_63
*1211 FILLER_15_70
*1212 FILLER_15_77
*1213 FILLER_15_84
*1214 FILLER_15_91
*1215 FILLER_15_98
*1216 FILLER_15_105
*1217 FILLER_15_112
*1218 FILLER_15_119
*1219 FILLER_15_126
*1220 FILLER_15_133
*1221 FILLER_15_140
*1222 FILLER_15_147
*1223 FILLER_15_154
*1224 FILLER_15_161
*1225 FILLER_15_168
*1226 FILLER_15_175
*1227 FILLER_15_182
*1228 FILLER_15_189
*1229 FILLER_15_196
*1230 FILLER_15_203
*1231 FILLER_15_210
*1232 FILLER_15_217
*1233 FILLER_15_224
*1234 FILLER_15_231
*1235 FILLER_15_238
*1236 FILLER_15_245
*1237 FILLER_15_252
*1238 FILLER_15_259
*1239 FILLER_15_266
*1240 FILLER_15_273
*1241 FILLER_15_280
*1242 FILLER_15_287
*1243 FILLER_15_294
*1244 FILLER_15_301
*1245 FILLER_15_308
*1246 FILLER_15_315
*1247 FILLER_15_322
*1248 FILLER_15_329
*1249 FILLER_15_336
*1250 FILLER_15_343
*1251 FILLER_15_350
*1252 FILLER_15_357
*1253 FILLER_15_364
*1254 FILLER_15_371
*1255 FILLER_15_378
*1256 FILLER_15_385
*1257 FILLER_15_392
*1258 FILLER_15_399
*1259 FILLER_15_406
*1260 FILLER_15_413
*1261 FILLER_15_420
*1262 FILLER_15_427
*1263 FILLER_15_429
*1264 FILLER_16_0
*1265 FILLER_16_7
*1266 FILLER_16_14
*1267 FILLER_16_21
*1268 FILLER_16_28
*1269 FILLER_16_35
*1270 FILLER_16_42
*1271 FILLER_16_49
*1272 FILLER_16_56
*1273 FILLER_16_63
*1274 FILLER_16_70
*1275 FILLER_16_77
*1276 FILLER_16_84
*1277 FILLER_16_91
*1278 FILLER_16_98
*1279 FILLER_16_105
*1280 FILLER_16_112
*1281 FILLER_16_119
*1282 FILLER_16_126
*1283 FILLER_16_133
*1284 FILLER_16_140
*1285 FILLER_16_147
*1286 FILLER_16_154
*1287 FILLER_16_161
*1288 FILLER_16_168
*1289 FILLER_16_175
*1290 FILLER_16_182
*1291 FILLER_16_189
*1292 FILLER_16_196
*1293 FILLER_16_203
*1294 FILLER_16_210
*1295 FILLER_16_217
*1296 FILLER_16_224
*1297 FILLER_16_231
*1298 FILLER_16_238
*1299 FILLER_16_245
*1300 FILLER_16_252
*1301 FILLER_16_259
*1302 FILLER_16_266
*1303 FILLER_16_273
*1304 FILLER_16_280
*1305 FILLER_16_287
*1306 FILLER_16_294
*1307 FILLER_16_301
*1308 FILLER_16_308
*1309 FILLER_16_315
*1310 FILLER_16_322
*1311 FILLER_16_329
*1312 FILLER_16_336
*1313 FILLER_16_343
*1314 FILLER_16_350
*1315 FILLER_16_357
*1316 FILLER_16_364
*1317 FILLER_16_371
*1318 FILLER_16_378
*1319 FILLER_16_385
*1320 FILLER_16_392
*1321 FILLER_16_399
*1322 FILLER_16_406
*1323 FILLER_16_413
*1324 FILLER_16_420
*1325 FILLER_16_427
*1326 FILLER_16_429
*1327 FILLER_17_0
*1328 FILLER_17_7
*1329 FILLER_17_14
*1330 FILLER_17_21
*1331 FILLER_17_28
*1332 FILLER_17_35
*1333 FILLER_17_42
*1334 FILLER_17_49
*1335 FILLER_17_56
*1336 FILLER_17_63
*1337 FILLER_17_70
*1338 FILLER_17_77
*1339 FILLER_17_84
*1340 FILLER_17_91
*1341 FILLER_17_98
*1342 FILLER_17_105
*1343 FILLER_17_112
*1344 FILLER_17_119
*1345 FILLER_17_126
*1346 FILLER_17_133
*1347 FILLER_17_140
*1348 FILLER_17_147
*1349 FILLER_17_154
*1350 FILLER_17_161
*1351 FILLER_17_168
*1352 FILLER_17_175
*1353 FILLER_17_182
*1354 FILLER_17_189
*1355 FILLER_17_196
*1356 FILLER_17_203
*1357 FILLER_17_210
*1358 FILLER_17_217
*1359 FILLER_17_224
*1360 FILLER_17_231
*1361 FILLER_17_238
*1362 FILLER_17_245
*1363 FILLER_17_252
*1364 FILLER_17_259
*1365 FILLER_17_266
*1366 FILLER_17_273
*1367 FILLER_17_280
*1368 FILLER_17_287
*1369 FILLER_17_294
*1370 FILLER_17_301
*1371 FILLER_17_308
*1372 FILLER_17_315
*1373 FILLER_17_322
*1374 FILLER_17_329
*1375 FILLER_17_336
*1376 FILLER_17_343
*1377 FILLER_17_350
*1378 FILLER_17_357
*1379 FILLER_17_364
*1380 FILLER_17_371
*1381 FILLER_17_378
*1382 FILLER_17_385
*1383 FILLER_17_392
*1384 FILLER_17_399
*1385 FILLER_17_406
*1386 FILLER_17_413
*1387 FILLER_17_420
*1388 FILLER_17_427
*1389 FILLER_17_429
*1390 FILLER_18_0
*1391 FILLER_18_7
*1392 FILLER_18_14
*1393 FILLER_18_21
*1394 FILLER_18_28
*1395 FILLER_18_35
*1396 FILLER_18_42
*1397 FILLER_18_49
*1398 FILLER_18_56
*1399 FILLER_18_63
*1400 FILLER_18_70
*1401 FILLER_18_77
*1402 FILLER_18_84
*1403 FILLER_18_91
*1404 FILLER_18_98
*1405 FILLER_18_105
*1406 FILLER_18_112
*1407 FILLER_18_119
*1408 FILLER_18_126
*1409 FILLER_18_133
*1410 FILLER_18_140
*1411 FILLER_18_147
*1412 FILLER_18_154
*1413 FILLER_18_161
*1414 FILLER_18_168
*1415 FILLER_18_175
*1416 FILLER_18_182
*1417 FILLER_18_189
*1418 FILLER_18_196
*1419 FILLER_18_203
*1420 FILLER_18_210
*1421 FILLER_18_217
*1422 FILLER_18_224
*1423 FILLER_18_231
*1424 FILLER_18_238
*1425 FILLER_18_245
*1426 FILLER_18_252
*1427 FILLER_18_259
*1428 FILLER_18_266
*1429 FILLER_18_273
*1430 FILLER_18_280
*1431 FILLER_18_287
*1432 FILLER_18_294
*1433 FILLER_18_301
*1434 FILLER_18_308
*1435 FILLER_18_315
*1436 FILLER_18_322
*1437 FILLER_18_329
*1438 FILLER_18_336
*1439 FILLER_18_343
*1440 FILLER_18_350
*1441 FILLER_18_357
*1442 FILLER_18_364
*1443 FILLER_18_371
*1444 FILLER_18_378
*1445 FILLER_18_385
*1446 FILLER_18_392
*1447 FILLER_18_399
*1448 FILLER_18_406
*1449 FILLER_18_413
*1450 FILLER_18_420
*1451 FILLER_18_427
*1452 FILLER_18_429
*1453 FILLER_19_0
*1454 FILLER_19_7
*1455 FILLER_19_14
*1456 FILLER_19_21
*1457 FILLER_19_28
*1458 FILLER_19_35
*1459 FILLER_19_42
*1460 FILLER_19_49
*1461 FILLER_19_56
*1462 FILLER_19_63
*1463 FILLER_19_70
*1464 FILLER_19_77
*1465 FILLER_19_84
*1466 FILLER_19_91
*1467 FILLER_19_98
*1468 FILLER_19_105
*1469 FILLER_19_112
*1470 FILLER_19_119
*1471 FILLER_19_126
*1472 FILLER_19_133
*1473 FILLER_19_140
*1474 FILLER_19_147
*1475 FILLER_19_154
*1476 FILLER_19_161
*1477 FILLER_19_168
*1478 FILLER_19_175
*1479 FILLER_19_182
*1480 FILLER_19_189
*1481 FILLER_19_196
*1482 FILLER_19_203
*1483 FILLER_19_210
*1484 FILLER_19_217
*1485 FILLER_19_224
*1486 FILLER_19_231
*1487 FILLER_19_238
*1488 FILLER_19_245
*1489 FILLER_19_252
*1490 FILLER_19_259
*1491 FILLER_19_266
*1492 FILLER_19_273
*1493 FILLER_19_280
*1494 FILLER_19_287
*1495 FILLER_19_294
*1496 FILLER_19_301
*1497 FILLER_19_308
*1498 FILLER_19_315
*1499 FILLER_19_322
*1500 FILLER_19_329
*1501 FILLER_19_336
*1502 FILLER_19_343
*1503 FILLER_19_350
*1504 FILLER_19_357
*1505 FILLER_19_364
*1506 FILLER_19_371
*1507 FILLER_19_378
*1508 FILLER_19_385
*1509 FILLER_19_392
*1510 FILLER_19_399
*1511 FILLER_19_406
*1512 FILLER_19_413
*1513 FILLER_19_420
*1514 FILLER_19_427
*1515 FILLER_19_429
*1516 FILLER_20_0
*1517 FILLER_20_7
*1518 FILLER_20_14
*1519 FILLER_20_21
*1520 FILLER_20_28
*1521 FILLER_20_35
*1522 FILLER_20_42
*1523 FILLER_20_49
*1524 FILLER_20_56
*1525 FILLER_20_63
*1526 FILLER_20_70
*1527 FILLER_20_77
*1528 FILLER_20_84
*1529 FILLER_20_91
*1530 FILLER_20_98
*1531 FILLER_20_105
*1532 FILLER_20_112
*1533 FILLER_20_119
*1534 FILLER_20_126
*1535 FILLER_20_133
*1536 FILLER_20_140
*1537 FILLER_20_147
*1538 FILLER_20_154
*1539 FILLER_20_161
*1540 FILLER_20_168
*1541 FILLER_20_175
*1542 FILLER_20_182
*1543 FILLER_20_189
*1544 FILLER_20_196
*1545 FILLER_20_203
*1546 FILLER_20_210
*1547 FILLER_20_217
*1548 FILLER_20_224
*1549 FILLER_20_231
*1550 FILLER_20_238
*1551 FILLER_20_245
*1552 FILLER_20_252
*1553 FILLER_20_259
*1554 FILLER_20_266
*1555 FILLER_20_273
*1556 FILLER_20_280
*1557 FILLER_20_287
*1558 FILLER_20_294
*1559 FILLER_20_301
*1560 FILLER_20_308
*1561 FILLER_20_315
*1562 FILLER_20_322
*1563 FILLER_20_329
*1564 FILLER_20_336
*1565 FILLER_20_343
*1566 FILLER_20_350
*1567 FILLER_20_357
*1568 FILLER_20_364
*1569 FILLER_20_371
*1570 FILLER_20_378
*1571 FILLER_20_385
*1572 FILLER_20_392
*1573 FILLER_20_399
*1574 FILLER_20_406
*1575 FILLER_20_413
*1576 FILLER_20_420
*1577 FILLER_20_427
*1578 FILLER_20_429
*1579 FILLER_21_0
*1580 FILLER_21_7
*1581 FILLER_21_14
*1582 FILLER_21_21
*1583 FILLER_21_28
*1584 FILLER_21_35
*1585 FILLER_21_42
*1586 FILLER_21_49
*1587 FILLER_21_56
*1588 FILLER_21_63
*1589 FILLER_21_70
*1590 FILLER_21_77
*1591 FILLER_21_84
*1592 FILLER_21_91
*1593 FILLER_21_98
*1594 FILLER_21_105
*1595 FILLER_21_112
*1596 FILLER_21_119
*1597 FILLER_21_126
*1598 FILLER_21_133
*1599 FILLER_21_140
*1600 FILLER_21_147
*1601 FILLER_21_154
*1602 FILLER_21_161
*1603 FILLER_21_168
*1604 FILLER_21_175
*1605 FILLER_21_182
*1606 FILLER_21_189
*1607 FILLER_21_196
*1608 FILLER_21_203
*1609 FILLER_21_210
*1610 FILLER_21_217
*1611 FILLER_21_224
*1612 FILLER_21_231
*1613 FILLER_21_238
*1614 FILLER_21_245
*1615 FILLER_21_252
*1616 FILLER_21_259
*1617 FILLER_21_266
*1618 FILLER_21_273
*1619 FILLER_21_280
*1620 FILLER_21_287
*1621 FILLER_21_294
*1622 FILLER_21_301
*1623 FILLER_21_308
*1624 FILLER_21_315
*1625 FILLER_21_322
*1626 FILLER_21_329
*1627 FILLER_21_336
*1628 FILLER_21_343
*1629 FILLER_21_350
*1630 FILLER_21_357
*1631 FILLER_21_364
*1632 FILLER_21_371
*1633 FILLER_21_378
*1634 FILLER_21_385
*1635 FILLER_21_392
*1636 FILLER_21_399
*1637 FILLER_21_406
*1638 FILLER_21_413
*1639 FILLER_21_420
*1640 FILLER_21_427
*1641 FILLER_21_429
*1642 FILLER_22_0
*1643 FILLER_22_7
*1644 FILLER_22_14
*1645 FILLER_22_21
*1646 FILLER_22_28
*1647 FILLER_22_35
*1648 FILLER_22_42
*1649 FILLER_22_49
*1650 FILLER_22_56
*1651 FILLER_22_63
*1652 FILLER_22_70
*1653 FILLER_22_77
*1654 FILLER_22_84
*1655 FILLER_22_91
*1656 FILLER_22_98
*1657 FILLER_22_105
*1658 FILLER_22_112
*1659 FILLER_22_119
*1660 FILLER_22_126
*1661 FILLER_22_133