*SPEF "ieee 1481-1999"
*DESIGN "tt_um_z2a_rgb_mixer"
*DATE "08:26:53 Friday October 25, 2024"
*VENDOR "The OpenROAD Project"
*PROGRAM "OpenROAD"
*VERSION "v2.0-16649-g40811f37f"
*DESIGN_FLOW "NAME_SCOPE LOCAL" "PIN_CAP NONE"
*DIVIDER /
*DELIMITER :
*BUS_DELIMITER []
*T_UNIT 1 NS
*C_UNIT 1 PF
*R_UNIT 1 OHM
*L_UNIT 1 HENRY

*NAME_MAP
*1 _0000_
*2 _0001_
*3 _0002_
*4 _0003_
*5 _0004_
*6 _0005_
*7 _0006_
*8 _0007_
*9 _0008_
*10 _0009_
*11 _0010_
*12 _0011_
*13 _0012_
*14 _0013_
*15 _0014_
*16 _0015_
*17 _0016_
*18 _0017_
*19 _0018_
*20 _0019_
*21 _0020_
*22 _0021_
*23 _0022_
*24 _0023_
*25 _0024_
*26 _0025_
*27 _0026_
*28 _0027_
*29 _0028_
*30 _0029_
*31 _0030_
*32 _0031_
*33 _0032_
*34 _0033_
*35 _0034_
*36 _0035_
*37 _0036_
*38 _0037_
*39 _0038_
*40 _0039_
*41 _0040_
*42 _0041_
*43 _0042_
*44 _0043_
*45 _0044_
*46 _0045_
*47 _0046_
*48 _0047_
*49 _0048_
*50 _0049_
*51 _0050_
*52 _0051_
*53 _0052_
*54 _0053_
*55 _0054_
*56 _0055_
*57 _0056_
*58 _0057_
*59 _0058_
*60 _0059_
*61 _0060_
*62 _0061_
*63 _0062_
*64 _0063_
*65 _0064_
*66 _0065_
*67 _0066_
*68 _0067_
*69 _0068_
*70 _0069_
*71 _0070_
*72 _0071_
*73 _0072_
*74 _0073_
*75 _0074_
*76 _0075_
*77 _0076_
*78 _0077_
*79 _0078_
*80 _0079_
*81 _0080_
*82 _0081_
*83 _0082_
*84 _0083_
*85 _0084_
*86 _0085_
*87 _0086_
*88 _0087_
*89 _0088_
*90 _0089_
*91 _0090_
*92 _0091_
*93 _0092_
*94 _0093_
*95 _0094_
*96 _0095_
*97 _0096_
*98 _0097_
*99 _0098_
*100 _0099_
*101 _0100_
*102 _0101_
*103 _0102_
*104 _0103_
*105 _0104_
*106 _0105_
*107 _0106_
*108 _0107_
*109 _0108_
*110 _0109_
*111 _0110_
*112 _0111_
*113 _0112_
*114 _0113_
*115 _0114_
*116 _0115_
*117 _0116_
*118 _0117_
*119 _0118_
*120 _0119_
*121 _0120_
*122 _0121_
*123 _0122_
*124 _0123_
*125 _0124_
*126 _0125_
*127 _0126_
*128 _0127_
*129 _0128_
*130 _0129_
*131 _0130_
*132 _0131_
*133 _0132_
*134 _0133_
*135 _0134_
*136 _0135_
*137 _0136_
*138 _0137_
*139 _0138_
*140 _0139_
*141 _0140_
*142 _0141_
*143 _0142_
*144 _0143_
*145 _0144_
*146 _0145_
*147 _0146_
*148 _0147_
*149 _0148_
*150 _0149_
*151 _0150_
*152 _0151_
*153 _0152_
*154 _0153_
*155 _0154_
*156 _0155_
*157 _0156_
*158 _0157_
*159 _0158_
*160 _0159_
*161 _0160_
*162 _0161_
*163 _0162_
*164 _0163_
*165 _0164_
*166 _0165_
*167 _0166_
*168 _0167_
*169 _0168_
*170 _0169_
*171 _0170_
*172 _0171_
*173 _0172_
*174 _0173_
*175 _0174_
*176 _0175_
*177 _0176_
*178 _0177_
*179 _0178_
*180 _0179_
*181 _0180_
*182 _0181_
*183 _0182_
*184 _0183_
*185 _0184_
*186 _0185_
*187 _0186_
*188 _0187_
*189 _0188_
*190 _0189_
*191 _0190_
*192 _0191_
*193 _0192_
*194 _0193_
*195 _0194_
*196 _0195_
*197 _0196_
*198 _0197_
*199 _0198_
*200 _0199_
*201 _0200_
*202 _0201_
*203 _0202_
*204 _0203_
*205 _0204_
*206 _0205_
*207 _0206_
*208 _0207_
*209 _0208_
*210 _0209_
*211 _0210_
*212 _0211_
*213 _0212_
*214 _0213_
*215 _0214_
*216 _0215_
*217 _0216_
*218 _0217_
*219 _0218_
*220 _0219_
*221 _0220_
*222 _0221_
*223 _0222_
*224 _0223_
*225 _0224_
*226 _0225_
*227 _0226_
*228 _0227_
*229 _0228_
*230 _0229_
*231 _0230_
*232 _0231_
*233 _0232_
*234 _0233_
*235 _0234_
*236 _0235_
*237 _0236_
*238 _0237_
*239 _0238_
*240 _0239_
*241 _0240_
*242 _0241_
*243 _0242_
*244 _0243_
*245 _0244_
*246 _0245_
*247 _0246_
*248 _0247_
*249 _0248_
*250 _0249_
*251 _0250_
*252 _0251_
*253 _0252_
*254 _0253_
*255 _0254_
*256 _0255_
*257 _0256_
*258 _0257_
*259 _0258_
*260 _0259_
*261 _0260_
*262 _0261_
*263 _0262_
*264 _0263_
*265 _0264_
*266 _0265_
*267 _0266_
*268 _0267_
*269 _0268_
*270 _0269_
*271 _0270_
*272 _0271_
*273 _0272_
*274 _0273_
*275 _0274_
*276 _0275_
*277 _0276_
*278 _0277_
*279 _0278_
*280 _0279_
*281 _0280_
*282 _0281_
*283 _0282_
*284 _0283_
*285 _0284_
*286 _0285_
*287 _0286_
*288 _0287_
*289 _0288_
*290 _0289_
*291 _0290_
*292 _0291_
*293 _0292_
*294 _0293_
*295 _0294_
*296 _0295_
*297 _0296_
*298 _0297_
*299 _0298_
*300 _0299_
*301 _0300_
*302 _0301_
*303 _0302_
*304 _0303_
*305 _0304_
*306 _0305_
*307 _0306_
*308 _0307_
*309 _0308_
*310 _0309_
*311 _0310_
*312 _0311_
*313 _0312_
*314 _0313_
*315 _0314_
*316 _0315_
*317 _0316_
*318 _0317_
*319 _0318_
*320 _0319_
*321 _0320_
*322 _0321_
*323 _0322_
*324 _0323_
*325 _0324_
*326 _0325_
*327 _0326_
*328 _0327_
*329 _0328_
*330 _0329_
*331 _0330_
*332 _0331_
*333 _0332_
*334 _0333_
*335 _0334_
*336 _0335_
*337 _0336_
*338 _0337_
*339 _0338_
*340 _0339_
*341 _0340_
*342 _0341_
*343 _0342_
*344 _0343_
*345 _0344_
*346 _0345_
*347 _0346_
*348 _0347_
*349 _0348_
*350 _0349_
*351 _0350_
*352 _0351_
*353 _0352_
*354 _0353_
*355 _0354_
*356 _0355_
*357 _0356_
*358 _0357_
*359 _0358_
*360 _0359_
*361 _0360_
*362 _0361_
*363 _0362_
*364 _0363_
*365 _0364_
*366 _0365_
*367 _0366_
*368 _0367_
*369 _0368_
*370 _0369_
*371 _0370_
*372 _0371_
*373 _0372_
*374 _0373_
*375 _0374_
*376 _0375_
*377 _0376_
*378 _0377_
*379 _0378_
*380 _0379_
*381 _0380_
*382 _0381_
*383 _0382_
*384 _0383_
*385 _0384_
*386 _0385_
*387 _0386_
*388 _0387_
*389 _0388_
*390 _0389_
*391 _0390_
*392 _0391_
*393 _0392_
*394 _0393_
*395 _0394_
*396 _0395_
*397 _0396_
*398 _0397_
*399 _0398_
*400 _0399_
*401 _0400_
*402 _0401_
*403 _0402_
*404 _0403_
*405 _0404_
*406 _0405_
*407 _0406_
*408 _0407_
*409 _0408_
*410 _0409_
*411 _0410_
*412 _0411_
*413 _0412_
*414 _0413_
*415 _0414_
*416 _0415_
*417 _0416_
*418 _0417_
*419 _0418_
*420 _0419_
*421 _0420_
*422 _0421_
*423 _0422_
*424 _0423_
*425 _0424_
*426 _0425_
*427 _0426_
*428 _0427_
*429 _0428_
*430 _0429_
*431 _0430_
*432 _0431_
*433 _0432_
*434 _0433_
*435 _0434_
*436 _0435_
*437 _0436_
*438 _0437_
*439 _0438_
*440 _0439_
*441 _0440_
*442 _0441_
*443 _0442_
*444 _0443_
*445 _0444_
*446 _0445_
*447 _0446_
*448 _0447_
*449 _0448_
*450 _0449_
*451 _0450_
*452 _0451_
*453 _0452_
*454 _0453_
*455 _0454_
*456 _0455_
*457 _0456_
*458 _0457_
*459 _0458_
*460 _0459_
*461 _0460_
*462 _0461_
*463 _0462_
*464 _0463_
*465 _0464_
*466 _0465_
*467 _0466_
*468 _0467_
*469 _0468_
*470 _0469_
*471 _0470_
*472 _0471_
*473 _0472_
*474 _0473_
*475 _0474_
*476 _0475_
*477 _0476_
*478 _0477_
*479 _0478_
*480 _0479_
*481 _0480_
*482 _0481_
*483 _0482_
*484 _0483_
*485 _0484_
*486 _0485_
*487 _0486_
*488 _0487_
*489 _0488_
*490 _0489_
*491 _0490_
*492 _0491_
*493 _0492_
*494 _0493_
*495 _0494_
*496 _0495_
*497 _0496_
*498 _0497_
*499 _0498_
*500 _0499_
*501 _0500_
*502 _0501_
*503 _0502_
*504 _0503_
*505 _0504_
*506 _0505_
*507 _0506_
*508 _0507_
*509 _0508_
*510 _0509_
*511 _0510_
*512 _0511_
*513 _0512_
*514 _0513_
*515 _0514_
*516 _0515_
*517 _0516_
*518 _0517_
*519 _0518_
*520 _0519_
*521 _0520_
*522 _0521_
*523 _0522_
*524 _0523_
*525 _0524_
*526 _0525_
*527 _0526_
*528 _0527_
*529 _0528_
*530 _0529_
*531 _0530_
*532 _0531_
*533 _0532_
*534 _0533_
*535 _0534_
*536 _0535_
*537 _0536_
*538 _0537_
*539 _0538_
*540 _0539_
*541 _0540_
*542 _0541_
*543 _0542_
*544 _0543_
*545 _0544_
*546 _0545_
*547 _0546_
*548 _0547_
*549 _0548_
*550 _0549_
*551 _0550_
*552 _0551_
*553 _0552_
*554 _0553_
*555 _0554_
*556 _0555_
*557 _0556_
*558 _0557_
*559 _0558_
*560 _0559_
*561 _0560_
*562 _0561_
*563 _0562_
*564 _0563_
*565 _0564_
*566 _0565_
*567 _0566_
*568 _0567_
*569 _0568_
*570 _0569_
*571 _0570_
*572 _0571_
*573 _0572_
*574 _0573_
*575 _0574_
*576 _0575_
*577 _0576_
*578 _0577_
*579 _0578_
*580 _0579_
*581 _0580_
*582 _0581_
*583 _0582_
*584 _0583_
*585 _0584_
*586 _0585_
*587 _0586_
*588 _0587_
*589 _0588_
*590 _0589_
*591 _0590_
*592 _0591_
*593 _0592_
*594 _0593_
*595 _0594_
*596 _0595_
*597 _0596_
*598 _0597_
*599 _0598_
*600 _0599_
*601 _0600_
*602 _0601_
*603 _0602_
*604 _0603_
*605 _0604_
*606 _0605_
*607 _0606_
*608 _0607_
*609 _0608_
*610 _0609_
*611 _0610_
*612 _0611_
*613 _0612_
*614 _0613_
*615 _0614_
*616 _0615_
*617 _0616_
*618 _0617_
*619 _0618_
*620 _0619_
*621 _0620_
*622 _0621_
*623 _0622_
*624 _0623_
*625 _0624_
*626 _0625_
*627 _0626_
*628 _0627_
*629 _0628_
*630 _0629_
*631 _0630_
*632 _0631_
*633 _0632_
*634 _0633_
*635 _0634_
*636 _0635_
*637 _0636_
*638 _0637_
*639 _0638_
*640 _0639_
*641 _0640_
*642 _0641_
*643 _0642_
*644 _0643_
*645 _0644_
*646 _0645_
*647 _0646_
*648 _0647_
*649 _0648_
*650 _0649_
*651 _0650_
*652 _0651_
*653 _0652_
*654 _0653_
*655 _0654_
*656 _0655_
*657 _0656_
*658 _0657_
*659 _0658_
*660 _0659_
*661 _0660_
*662 _0661_
*663 _0662_
*664 _0663_
*665 _0664_
*666 _0665_
*667 _0666_
*668 _0667_
*669 _0668_
*670 _0669_
*671 _0670_
*672 _0671_
*673 _0672_
*674 _0673_
*675 _0674_
*676 _0675_
*677 _0676_
*678 _0677_
*679 _0678_
*680 _0679_
*681 _0680_
*682 _0681_
*683 _0682_
*684 _0683_
*685 _0684_
*686 _0685_
*687 _0686_
*688 _0687_
*689 _0688_
*690 _0689_
*691 _0690_
*692 _0691_
*693 _0692_
*694 _0693_
*695 _0694_
*696 _0695_
*697 _0696_
*698 clknet_0_clk
*699 net53
*700 clk
*701 ena
*702 enc0\[0\]
*703 enc0\[1\]
*704 enc0\[2\]
*705 enc0\[3\]
*706 enc0\[4\]
*707 enc0\[5\]
*708 enc0\[6\]
*709 enc0\[7\]
*710 enc1\[0\]
*711 enc1\[1\]
*712 enc1\[2\]
*713 enc1\[3\]
*714 enc1\[4\]
*715 enc1\[5\]
*716 enc1\[6\]
*717 enc1\[7\]
*718 enc2\[0\]
*719 enc2\[1\]
*720 enc2\[2\]
*721 enc2\[3\]
*722 enc2\[4\]
*723 enc2\[5\]
*724 enc2\[6\]
*725 enc2\[7\]
*726 rgb_mixer\.debounce0_a\.button_hist\[0\]
*727 rgb_mixer\.debounce0_a\.button_hist\[1\]
*728 rgb_mixer\.debounce0_a\.button_hist\[2\]
*729 rgb_mixer\.debounce0_a\.button_hist\[3\]
*730 rgb_mixer\.debounce0_a\.button_hist\[4\]
*731 rgb_mixer\.debounce0_a\.button_hist\[5\]
*732 rgb_mixer\.debounce0_a\.button_hist\[6\]
*733 rgb_mixer\.debounce0_a\.button_hist\[7\]
*734 rgb_mixer\.debounce0_a\.debounced
*735 rgb_mixer\.debounce0_b\.button_hist\[0\]
*736 rgb_mixer\.debounce0_b\.button_hist\[1\]
*737 rgb_mixer\.debounce0_b\.button_hist\[2\]
*738 rgb_mixer\.debounce0_b\.button_hist\[3\]
*739 rgb_mixer\.debounce0_b\.button_hist\[4\]
*740 rgb_mixer\.debounce0_b\.button_hist\[5\]
*741 rgb_mixer\.debounce0_b\.button_hist\[6\]
*742 rgb_mixer\.debounce0_b\.button_hist\[7\]
*743 rgb_mixer\.debounce0_b\.debounced
*744 rgb_mixer\.debounce1_a\.button_hist\[0\]
*745 rgb_mixer\.debounce1_a\.button_hist\[1\]
*746 rgb_mixer\.debounce1_a\.button_hist\[2\]
*747 rgb_mixer\.debounce1_a\.button_hist\[3\]
*748 rgb_mixer\.debounce1_a\.button_hist\[4\]
*749 rgb_mixer\.debounce1_a\.button_hist\[5\]
*750 rgb_mixer\.debounce1_a\.button_hist\[6\]
*751 rgb_mixer\.debounce1_a\.button_hist\[7\]
*752 rgb_mixer\.debounce1_a\.debounced
*753 rgb_mixer\.debounce1_b\.button_hist\[0\]
*754 rgb_mixer\.debounce1_b\.button_hist\[1\]
*755 rgb_mixer\.debounce1_b\.button_hist\[2\]
*756 rgb_mixer\.debounce1_b\.button_hist\[3\]
*757 rgb_mixer\.debounce1_b\.button_hist\[4\]
*758 rgb_mixer\.debounce1_b\.button_hist\[5\]
*759 rgb_mixer\.debounce1_b\.button_hist\[6\]
*760 rgb_mixer\.debounce1_b\.button_hist\[7\]
*761 rgb_mixer\.debounce1_b\.debounced
*762 rgb_mixer\.debounce2_a\.button_hist\[0\]
*763 rgb_mixer\.debounce2_a\.button_hist\[1\]
*764 rgb_mixer\.debounce2_a\.button_hist\[2\]
*765 rgb_mixer\.debounce2_a\.button_hist\[3\]
*766 rgb_mixer\.debounce2_a\.button_hist\[4\]
*767 rgb_mixer\.debounce2_a\.button_hist\[5\]
*768 rgb_mixer\.debounce2_a\.button_hist\[6\]
*769 rgb_mixer\.debounce2_a\.button_hist\[7\]
*770 rgb_mixer\.debounce2_a\.debounced
*771 rgb_mixer\.debounce2_b\.button_hist\[0\]
*772 rgb_mixer\.debounce2_b\.button_hist\[1\]
*773 rgb_mixer\.debounce2_b\.button_hist\[2\]
*774 rgb_mixer\.debounce2_b\.button_hist\[3\]
*775 rgb_mixer\.debounce2_b\.button_hist\[4\]
*776 rgb_mixer\.debounce2_b\.button_hist\[5\]
*777 rgb_mixer\.debounce2_b\.button_hist\[6\]
*778 rgb_mixer\.debounce2_b\.button_hist\[7\]
*779 rgb_mixer\.debounce2_b\.debounced
*780 rgb_mixer\.encoder0\.old_a
*781 rgb_mixer\.encoder0\.old_b
*782 rgb_mixer\.encoder1\.old_a
*783 rgb_mixer\.encoder1\.old_b
*784 rgb_mixer\.encoder2\.old_a
*785 rgb_mixer\.encoder2\.old_b
*786 rgb_mixer\.pwm0\.count\[0\]
*787 rgb_mixer\.pwm0\.count\[1\]
*788 rgb_mixer\.pwm0\.count\[2\]
*789 rgb_mixer\.pwm0\.count\[3\]
*790 rgb_mixer\.pwm0\.count\[4\]
*791 rgb_mixer\.pwm0\.count\[5\]
*792 rgb_mixer\.pwm0\.count\[6\]
*793 rgb_mixer\.pwm0\.count\[7\]
*794 rgb_mixer\.pwm0\.out
*795 rgb_mixer\.pwm1\.count\[0\]
*796 rgb_mixer\.pwm1\.count\[1\]
*797 rgb_mixer\.pwm1\.count\[2\]
*798 rgb_mixer\.pwm1\.count\[3\]
*799 rgb_mixer\.pwm1\.count\[4\]
*800 rgb_mixer\.pwm1\.count\[5\]
*801 rgb_mixer\.pwm1\.count\[6\]
*802 rgb_mixer\.pwm1\.count\[7\]
*803 rgb_mixer\.pwm1\.out
*804 rgb_mixer\.pwm2\.count\[0\]
*805 rgb_mixer\.pwm2\.count\[1\]
*806 rgb_mixer\.pwm2\.count\[2\]
*807 rgb_mixer\.pwm2\.count\[3\]
*808 rgb_mixer\.pwm2\.count\[4\]
*809 rgb_mixer\.pwm2\.count\[5\]
*810 rgb_mixer\.pwm2\.count\[6\]
*811 rgb_mixer\.pwm2\.count\[7\]
*812 rgb_mixer\.pwm2\.out
*813 rst_n
*814 ui_in[0]
*815 ui_in[1]
*816 ui_in[2]
*817 ui_in[3]
*818 ui_in[4]
*819 ui_in[5]
*820 ui_in[6]
*821 ui_in[7]
*822 uio_in[0]
*823 uio_in[1]
*824 uio_in[2]
*825 uio_in[3]
*826 uio_in[4]
*827 uio_in[5]
*828 uio_in[6]
*829 uio_in[7]
*830 uio_oe[0]
*831 uio_oe[1]
*832 uio_oe[2]
*833 uio_oe[3]
*834 uio_oe[4]
*835 uio_oe[5]
*836 uio_oe[6]
*837 uio_oe[7]
*838 uio_out[0]
*839 uio_out[1]
*840 uio_out[2]
*841 uio_out[3]
*842 uio_out[4]
*843 uio_out[5]
*844 uio_out[6]
*845 uio_out[7]
*846 uo_out[0]
*847 uo_out[1]
*848 uo_out[2]
*849 uo_out[3]
*850 uo_out[4]
*851 uo_out[5]
*852 uo_out[6]
*853 uo_out[7]
*856 net1
*857 net2
*858 net3
*859 net4
*860 net5
*861 net6
*862 net7
*863 net8
*864 net9
*865 net10
*866 net11
*867 net12
*868 net13
*869 net14
*870 net15
*871 net16
*872 net17
*873 net18
*874 net19
*875 net20
*876 net21
*877 net22
*878 net23
*879 net24
*880 net25
*881 net26
*882 net27
*883 net28
*884 net29
*885 net30
*886 net31
*887 net32
*888 net33
*889 net34
*890 net35
*891 net36
*892 net37
*893 net38
*894 net39
*895 net40
*896 net41
*897 net42
*898 net43
*899 net44
*900 net45
*901 net46
*902 net47
*903 net48
*904 net49
*905 net50
*906 net51
*907 net52
*908 net54
*909 net55
*910 net56
*911 net57
*912 net58
*913 net59
*914 net60
*915 net61
*916 net62
*917 net63
*918 net64
*919 net65
*920 net66
*921 net67
*922 net68
*923 net69
*924 net70
*925 net71
*926 net72
*927 net73
*928 net74
*929 net75
*930 net76
*931 net77
*932 net78
*933 net79
*934 net80
*935 net81
*936 net82
*937 net83
*938 net84
*939 net85
*940 net86
*941 net87
*942 net88
*943 net89
*944 net90
*945 net91
*946 net92
*947 net93
*948 net94
*949 net95
*950 net96
*951 net97
*952 net98
*953 net99
*954 net100
*955 net101
*956 net102
*957 net103
*958 net104
*959 net105
*960 net106
*961 net107
*962 net108
*963 net109
*964 net110
*965 net111
*966 net112
*967 net113
*968 net114
*969 net115
*970 net116
*971 net117
*972 net118
*973 net119
*974 net120
*975 net121
*976 net122
*977 net123
*978 net124
*979 net125
*980 net126
*981 net127
*982 net128
*983 net129
*984 net130
*985 net131
*986 net132
*987 net133
*988 net134
*989 net135
*990 net136
*991 net137
*992 net138
*993 net139
*994 net140
*995 net141
*996 net142
*997 net143
*998 net144
*999 net145
*1000 net146
*1001 net147
*1002 net148
*1003 net149
*1004 net150
*1005 net151
*1006 net152
*1007 net153
*1008 net154
*1009 net155
*1010 net156
*1011 net157
*1012 net158
*1013 net159
*1014 net160
*1015 net161
*1016 net162
*1017 net163
*1018 net164
*1019 net165
*1020 net166
*1021 net167
*1022 net168
*1023 net169
*1024 net170
*1025 net171
*1026 clknet_4_0_0_clk
*1027 clknet_4_1_0_clk
*1028 clknet_4_2_0_clk
*1029 clknet_4_3_0_clk
*1030 clknet_4_4_0_clk
*1031 clknet_4_5_0_clk
*1032 clknet_4_6_0_clk
*1033 clknet_4_7_0_clk
*1034 clknet_4_8_0_clk
*1035 clknet_4_9_0_clk
*1036 clknet_4_10_0_clk
*1037 clknet_4_11_0_clk
*1038 clknet_4_12_0_clk
*1039 clknet_4_13_0_clk
*1040 clknet_4_14_0_clk
*1041 clknet_4_15_0_clk
*1042 _0699_
*1043 _0700_
*1044 _0701_
*1045 _0702_
*1046 _0703_
*1047 _0704_
*1048 _0705_
*1049 _0706_
*1050 _0707_
*1051 _0708_
*1052 _0709_
*1053 _0710_
*1054 _0711_
*1055 _0712_
*1056 _0713_
*1057 _0714_
*1058 _0715_
*1059 _0716_
*1060 _0717_
*1061 _0718_
*1062 _0719_
*1063 _0720_
*1064 _0721_
*1065 _0722_
*1066 _0723_
*1067 _0724_
*1068 _0725_
*1069 _0726_
*1070 _0727_
*1071 _0728_
*1072 _0729_
*1073 _0730_
*1074 _0731_
*1075 _0732_
*1076 _0733_
*1077 _0734_
*1078 _0735_
*1079 _0736_
*1080 _0737_
*1081 _0738_
*1082 _0739_
*1083 _0740_
*1084 _0741_
*1085 _0742_
*1086 _0743_
*1087 _0744_
*1088 _0745_
*1089 _0746_
*1090 _0747_
*1091 _0748_
*1092 _0749_
*1093 _0750_
*1094 _0751_
*1095 _0752_
*1096 _0753_
*1097 _0754_
*1098 _0755_
*1099 _0756_
*1100 _0757_
*1101 _0758_
*1102 _0759_
*1103 _0760_
*1104 _0761_
*1105 _0762_
*1106 _0763_
*1107 _0764_
*1108 _0765_
*1109 _0766_
*1110 _0767_
*1111 _0768_
*1112 _0769_
*1113 _0770_
*1114 _0771_
*1115 _0772_
*1116 _0773_
*1117 _0774_
*1118 _0775_
*1119 _0776_
*1120 _0777_
*1121 _0778_
*1122 _0779_
*1123 _0780_
*1124 _0781_
*1125 _0782_
*1126 _0783_
*1127 _0784_
*1128 _0785_
*1129 _0786_
*1130 _0787_
*1131 _0788_
*1132 _0789_
*1133 _0790_
*1134 _0791_
*1135 _0792_
*1136 _0793_
*1137 _0794_
*1138 _0795_
*1139 _0796_
*1140 _0797_
*1141 _0798_
*1142 _0799_
*1143 _0800_
*1144 _0801_
*1145 _0802_
*1146 _0803_
*1147 _0804_
*1148 _0805_
*1149 _0806_
*1150 _0807_
*1151 _0808_
*1152 _0809_
*1153 _0810_
*1154 _0811_
*1155 _0812_
*1156 _0813_
*1157 _0814_
*1158 _0815_
*1159 _0816_
*1160 _0817_
*1161 _0818_
*1162 _0819_
*1163 _0820_
*1164 _0821_
*1165 _0822_
*1166 _0823_
*1167 _0824_
*1168 _0825_
*1169 _0826_
*1170 _0827_
*1171 _0828_
*1172 _0829_
*1173 _0830_
*1174 _0831_
*1175 _0832_
*1176 _0833_
*1177 _0834_
*1178 _0835_
*1179 _0836_
*1180 _0837_
*1181 _0838_
*1182 _0839_
*1183 _0840_
*1184 _0841_
*1185 _0842_
*1186 _0843_
*1187 _0844_
*1188 _0845_
*1189 _0846_
*1190 _0847_
*1191 _0848_
*1192 _0849_
*1193 _0850_
*1194 _0851_
*1195 _0852_
*1196 _0853_
*1197 _0854_
*1198 _0855_
*1199 _0856_
*1200 _0857_
*1201 _0858_
*1202 _0859_
*1203 _0860_
*1204 _0861_
*1205 _0862_
*1206 _0863_
*1207 _0864_
*1208 _0865_
*1209 _0866_
*1210 _0867_
*1211 _0868_
*1212 _0869_
*1213 _0870_
*1214 _0871_
*1215 _0872_
*1216 _0873_
*1217 _0874_
*1218 _0875_
*1219 _0876_
*1220 _0877_
*1221 _0878_
*1222 _0879_
*1223 _0880_
*1224 _0881_
*1225 _0882_
*1226 _0883_
*1227 _0884_
*1228 _0885_
*1229 _0886_
*1230 _0887_
*1231 _0888_
*1232 _0889_
*1233 _0890_
*1234 _0891_
*1235 _0892_
*1236 _0893_
*1237 _0894_
*1238 _0895_
*1239 _0896_
*1240 _0897_
*1241 _0898_
*1242 _0899_
*1243 _0900_
*1244 _0901_
*1245 _0902_
*1246 _0903_
*1247 _0904_
*1248 _0905_
*1249 _0906_
*1250 _0907_
*1251 _0908_
*1252 _0909_
*1253 _0910_
*1254 _0911_
*1255 _0912_
*1256 _0913_
*1257 _0914_
*1258 _0915_
*1259 _0916_
*1260 _0917_
*1261 _0918_
*1262 _0919_
*1263 _0920_
*1264 _0921_
*1265 _0922_
*1266 _0923_
*1267 _0924_
*1268 _0925_
*1269 _0926_
*1270 _0927_
*1271 _0928_
*1272 _0929_
*1273 _0930_
*1274 _0931_
*1275 _0932_
*1276 _0933_
*1277 _0934_
*1278 _0935_
*1279 _0936_
*1280 _0937_
*1281 _0938_
*1282 _0939_
*1283 _0940_
*1284 _0941_
*1285 _0942_
*1286 _0943_
*1287 _0944_
*1288 _0945_
*1289 _0946_
*1290 _0947_
*1291 _0948_
*1292 _0949_
*1293 _0950_
*1294 _0951_
*1295 _0952_
*1296 _0953_
*1297 _0954_
*1298 _0955_
*1299 _0956_
*1300 _0957_
*1301 _0958_
*1302 _0959_
*1303 _0960_
*1304 _0961_
*1305 _0962_
*1306 _0963_
*1307 _0964_
*1308 _0965_
*1309 _0966_
*1310 _0967_
*1311 _0968_
*1312 _0969_
*1313 _0970_
*1314 _0971_
*1315 _0972_
*1316 _0973_
*1317 _0974_
*1318 _0975_
*1319 _0976_
*1320 _0977_
*1321 _0978_
*1322 _0979_
*1323 _0980_
*1324 _0981_
*1325 _0982_
*1326 _0983_
*1327 _0984_
*1328 _0985_
*1329 _0986_
*1330 _0987_
*1331 _0988_
*1332 _0989_
*1333 _0990_
*1334 _0991_
*1335 _0992_
*1336 _0993_
*1337 _0994_
*1338 _0995_
*1339 _0996_
*1340 _0997_
*1341 _0998_
*1342 _0999_
*1343 _1000_
*1344 _1001_
*1345 _1002_
*1346 _1003_
*1347 _1004_
*1348 _1005_
*1349 _1006_
*1350 _1007_
*1351 _1008_
*1352 _1009_
*1353 _1010_
*1354 _1011_
*1355 _1012_
*1356 _1013_
*1357 _1014_
*1358 _1015_
*1359 _1016_
*1360 _1017_
*1361 _1018_
*1362 _1019_
*1363 _1020_
*1364 _1021_
*1365 _1022_
*1366 _1023_
*1367 _1024_
*1368 _1025_
*1369 _1026_
*1370 _1027_
*1371 _1028_
*1372 _1029_
*1373 _1030_
*1374 _1031_
*1375 _1032_
*1376 _1033_
*1377 _1034_
*1378 _1035_
*1379 _1036_
*1380 _1037_
*1381 _1038_
*1382 _1039_
*1383 _1040_
*1384 _1041_
*1385 _1042_
*1386 _1043_
*1387 _1044_
*1388 _1045_
*1389 _1046_
*1390 _1047_
*1391 _1048_
*1392 _1049_
*1393 _1050_
*1394 _1051_
*1395 _1052_
*1396 _1053_
*1397 _1054_
*1398 _1055_
*1399 _1056_
*1400 _1057_
*1401 _1058_
*1402 _1059_
*1403 _1060_
*1404 _1061_
*1405 _1062_
*1406 _1063_
*1407 _1064_
*1408 _1065_
*1409 _1066_
*1410 _1067_
*1411 _1068_
*1412 _1069_
*1413 _1070_
*1414 _1071_
*1415 _1072_
*1416 _1073_
*1417 _1074_
*1418 _1075_
*1419 _1076_
*1420 _1077_
*1421 _1078_
*1422 _1079_
*1423 _1080_
*1424 _1081_
*1425 _1082_
*1426 _1083_
*1427 _1084_
*1428 _1085_
*1429 _1086_
*1430 _1087_
*1431 _1088_
*1432 _1089_
*1433 _1090_
*1434 _1091_
*1435 _1092_
*1436 _1093_
*1437 _1094_
*1438 _1095_
*1439 _1096_
*1440 _1097_
*1441 _1098_
*1442 _1099_
*1443 _1100_
*1444 _1101_
*1445 _1102_
*1446 _1103_
*1447 _1104_
*1448 _1105_
*1449 _1106_
*1450 _1107_
*1451 _1108_
*1452 _1109_
*1453 _1110_
*1454 _1111_
*1455 _1112_
*1456 _1113_
*1457 _1114_
*1458 _1115_
*1459 _1116_
*1460 _1117_
*1461 _1118_
*1462 _1119_
*1463 _1120_
*1464 _1121_
*1465 _1122_
*1466 _1123_
*1467 _1124_
*1468 _1125_
*1469 _1126_
*1470 _1127_
*1471 _1128_
*1472 _1129_
*1473 _1130_
*1474 _1131_
*1475 _1132_
*1476 _1133_
*1477 _1134_
*1478 _1135_
*1479 _1136_
*1480 _1137_
*1481 _1138_
*1482 _1139_
*1483 _1140_
*1484 _1141_
*1485 _1142_
*1486 _1143_
*1487 _1144_
*1488 _1145_
*1489 _1146_
*1490 _1147_
*1491 _1148_
*1492 _1149_
*1493 _1150_
*1494 _1151_
*1495 _1152_
*1496 _1153_
*1497 _1154_
*1498 _1155_
*1499 _1156_
*1500 _1157_
*1501 _1158_
*1502 _1159_
*1503 _1160_
*1504 _1161_
*1505 _1162_
*1506 _1163_
*1507 _1164_
*1508 _1165_
*1509 _1166_
*1510 _1167_
*1511 _1168_
*1512 _1169_
*1513 _1170_
*1514 _1171_
*1515 _1172_
*1516 _1173_
*1517 _1174_
*1518 _1175_
*1519 _1176_
*1520 _1177_
*1521 _1178_
*1522 _1179_
*1523 _1180_
*1524 _1181_
*1525 _1182_
*1526 _1183_
*1527 _1184_
*1528 _1185_
*1529 _1186_
*1530 _1187_
*1531 _1188_
*1532 _1189_
*1533 _1190_
*1534 _1191_
*1535 _1192_
*1536 _1193_
*1537 _1194_
*1538 _1195_
*1539 _1196_
*1540 _1197_
*1541 _1198_
*1542 _1199_
*1543 _1200_
*1544 _1201_
*1545 _1202_
*1546 _1203_
*1547 _1204_
*1548 _1205_
*1549 _1206_
*1550 _1207_
*1551 _1208_
*1552 _1209_
*1553 _1210_
*1554 _1211_
*1555 _1212_
*1556 _1213_
*1557 _1214_
*1558 _1215_
*1559 _1216_
*1560 _1217_
*1561 _1218_
*1562 _1219_
*1563 _1220_
*1564 _1221_
*1565 _1222_
*1566 _1223_
*1567 _1224_
*1568 _1225_
*1569 _1226_
*1570 _1227_
*1571 _1228_
*1572 _1229_
*1573 _1230_
*1574 _1231_
*1575 _1232_
*1576 _1233_
*1577 _1234_
*1578 _1235_
*1579 _1236_
*1580 _1237_
*1581 _1238_
*1582 _1239_
*1583 _1240_
*1584 _1241_
*1585 _1242_
*1586 _1243_
*1587 _1244_
*1588 _1245_
*1589 _1246_
*1590 _1247_
*1591 _1248_
*1592 _1249_
*1593 _1250_
*1594 _1251_
*1595 _1252_
*1596 _1253_
*1597 _1254_
*1598 _1255_
*1599 _1256_
*1600 _1257_
*1601 _1258_
*1602 _1259_
*1603 _1260_
*1604 _1261_
*1605 _1262_
*1606 _1263_
*1607 _1264_
*1608 _1265_
*1609 _1266_
*1610 _1267_
*1611 _1268_
*1612 _1269_
*1613 _1270_
*1614 _1271_
*1615 _1272_
*1616 _1273_
*1617 _1274_
*1618 _1275_
*1619 _1276_
*1620 _1277_
*1621 _1278_
*1622 _1279_
*1623 _1280_
*1624 _1281_
*1625 _1282_
*1626 _1283_
*1627 _1284_
*1628 _1285_
*1629 _1286_
*1630 _1287_
*1631 _1288_
*1632 _1289_
*1633 _1290_
*1634 _1291_
*1635 _1292_
*1636 clkbuf_0_clk
*1637 _1295__53
*1638 _1295_
*1639 _1296_
*1640 _1297_
*1641 _1298_
*1642 _1299_
*1643 _1300_
*1644 _1301_
*1645 _1302_
*1646 _1303_
*1647 _1304_
*1648 _1305_
*1649 _1306_
*1650 _1307_
*1651 _1308_
*1652 _1309_
*1653 _1310_
*1654 rgb_mixer\.debounce0_a\.button_hist\[0\]\$_SDFF_PN0_
*1655 rgb_mixer\.debounce0_a\.button_hist\[1\]\$_SDFF_PN0_
*1656 rgb_mixer\.debounce0_a\.button_hist\[2\]\$_SDFF_PN0_
*1657 rgb_mixer\.debounce0_a\.button_hist\[3\]\$_SDFF_PN0_
*1658 rgb_mixer\.debounce0_a\.button_hist\[4\]\$_SDFF_PN0_
*1659 rgb_mixer\.debounce0_a\.button_hist\[5\]\$_SDFF_PN0_
*1660 rgb_mixer\.debounce0_a\.button_hist\[6\]\$_SDFF_PN0_
*1661 rgb_mixer\.debounce0_a\.button_hist\[7\]\$_SDFF_PN0_
*1662 rgb_mixer\.debounce0_a\.debounced\$_SDFFE_PN0P_
*1663 rgb_mixer\.debounce0_b\.button_hist\[0\]\$_SDFF_PN0_
*1664 rgb_mixer\.debounce0_b\.button_hist\[1\]\$_SDFF_PN0_
*1665 rgb_mixer\.debounce0_b\.button_hist\[2\]\$_SDFF_PN0_
*1666 rgb_mixer\.debounce0_b\.button_hist\[3\]\$_SDFF_PN0_
*1667 rgb_mixer\.debounce0_b\.button_hist\[4\]\$_SDFF_PN0_
*1668 rgb_mixer\.debounce0_b\.button_hist\[5\]\$_SDFF_PN0_
*1669 rgb_mixer\.debounce0_b\.button_hist\[6\]\$_SDFF_PN0_
*1670 rgb_mixer\.debounce0_b\.button_hist\[7\]\$_SDFF_PN0_
*1671 rgb_mixer\.debounce0_b\.debounced\$_SDFFE_PN0P_
*1672 rgb_mixer\.debounce1_a\.button_hist\[0\]\$_SDFF_PN0_
*1673 rgb_mixer\.debounce1_a\.button_hist\[1\]\$_SDFF_PN0_
*1674 rgb_mixer\.debounce1_a\.button_hist\[2\]\$_SDFF_PN0_
*1675 rgb_mixer\.debounce1_a\.button_hist\[3\]\$_SDFF_PN0_
*1676 rgb_mixer\.debounce1_a\.button_hist\[4\]\$_SDFF_PN0_
*1677 rgb_mixer\.debounce1_a\.button_hist\[5\]\$_SDFF_PN0_
*1678 rgb_mixer\.debounce1_a\.button_hist\[6\]\$_SDFF_PN0_
*1679 rgb_mixer\.debounce1_a\.button_hist\[7\]\$_SDFF_PN0_
*1680 rgb_mixer\.debounce1_a\.debounced\$_SDFFE_PN0P_
*1681 rgb_mixer\.debounce1_b\.button_hist\[0\]\$_SDFF_PN0_
*1682 rgb_mixer\.debounce1_b\.button_hist\[1\]\$_SDFF_PN0_
*1683 rgb_mixer\.debounce1_b\.button_hist\[2\]\$_SDFF_PN0_
*1684 rgb_mixer\.debounce1_b\.button_hist\[3\]\$_SDFF_PN0_
*1685 rgb_mixer\.debounce1_b\.button_hist\[4\]\$_SDFF_PN0_
*1686 rgb_mixer\.debounce1_b\.button_hist\[5\]\$_SDFF_PN0_
*1687 rgb_mixer\.debounce1_b\.button_hist\[6\]\$_SDFF_PN0_
*1688 rgb_mixer\.debounce1_b\.button_hist\[7\]\$_SDFF_PN0_
*1689 rgb_mixer\.debounce1_b\.debounced\$_SDFFE_PN0P_
*1690 rgb_mixer\.debounce2_a\.button_hist\[0\]\$_SDFF_PN0_
*1691 rgb_mixer\.debounce2_a\.button_hist\[1\]\$_SDFF_PN0_
*1692 rgb_mixer\.debounce2_a\.button_hist\[2\]\$_SDFF_PN0_
*1693 rgb_mixer\.debounce2_a\.button_hist\[3\]\$_SDFF_PN0_
*1694 rgb_mixer\.debounce2_a\.button_hist\[4\]\$_SDFF_PN0_
*1695 rgb_mixer\.debounce2_a\.button_hist\[5\]\$_SDFF_PN0_
*1696 rgb_mixer\.debounce2_a\.button_hist\[6\]\$_SDFF_PN0_
*1697 rgb_mixer\.debounce2_a\.button_hist\[7\]\$_SDFF_PN0_
*1698 rgb_mixer\.debounce2_a\.debounced\$_SDFFE_PN0P_
*1699 rgb_mixer\.debounce2_b\.button_hist\[0\]\$_SDFF_PN0_
*1700 rgb_mixer\.debounce2_b\.button_hist\[1\]\$_SDFF_PN0_
*1701 rgb_mixer\.debounce2_b\.button_hist\[2\]\$_SDFF_PN0_
*1702 rgb_mixer\.debounce2_b\.button_hist\[3\]\$_SDFF_PN0_
*1703 rgb_mixer\.debounce2_b\.button_hist\[4\]\$_SDFF_PN0_
*1704 rgb_mixer\.debounce2_b\.button_hist\[5\]\$_SDFF_PN0_
*1705 rgb_mixer\.debounce2_b\.button_hist\[6\]\$_SDFF_PN0_
*1706 rgb_mixer\.debounce2_b\.button_hist\[7\]\$_SDFF_PN0_
*1707 rgb_mixer\.debounce2_b\.debounced\$_SDFFE_PN0P_
*1708 rgb_mixer\.encoder0\.old_a\$_SDFF_PN0_
*1709 rgb_mixer\.encoder0\.old_b\$_SDFF_PN0_
*1710 rgb_mixer\.encoder0\.value\[0\]\$_SDFFE_PN0P_
*1711 rgb_mixer\.encoder0\.value\[1\]\$_SDFFE_PN0P_
*1712 rgb_mixer\.encoder0\.value\[2\]\$_SDFFE_PN0P_
*1713 rgb_mixer\.encoder0\.value\[3\]\$_SDFFE_PN0P_
*1714 rgb_mixer\.encoder0\.value\[4\]\$_SDFFE_PN0P_
*1715 rgb_mixer\.encoder0\.value\[5\]\$_SDFFE_PN0P_
*1716 rgb_mixer\.encoder0\.value\[6\]\$_SDFFE_PN0P_
*1717 rgb_mixer\.encoder0\.value\[7\]\$_SDFFE_PN0P_
*1718 rgb_mixer\.encoder1\.old_a\$_SDFF_PN0_
*1719 rgb_mixer\.encoder1\.old_b\$_SDFF_PN0_
*1720 rgb_mixer\.encoder1\.value\[0\]\$_SDFFE_PN0P_
*1721 rgb_mixer\.encoder1\.value\[1\]\$_SDFFE_PN0P_
*1722 rgb_mixer\.encoder1\.value\[2\]\$_SDFFE_PN0P_
*1723 rgb_mixer\.encoder1\.value\[3\]\$_SDFFE_PN0P_
*1724 rgb_mixer\.encoder1\.value\[4\]\$_SDFFE_PN0P_
*1725 rgb_mixer\.encoder1\.value\[5\]\$_SDFFE_PN0P_
*1726 rgb_mixer\.encoder1\.value\[6\]\$_SDFFE_PN0P_
*1727 rgb_mixer\.encoder1\.value\[7\]\$_SDFFE_PN0P_
*1728 rgb_mixer\.encoder2\.old_a\$_SDFF_PN0_
*1729 rgb_mixer\.encoder2\.old_b\$_SDFF_PN0_
*1730 rgb_mixer\.encoder2\.value\[0\]\$_SDFFE_PN0P_
*1731 rgb_mixer\.encoder2\.value\[1\]\$_SDFFE_PN0P_
*1732 rgb_mixer\.encoder2\.value\[2\]\$_SDFFE_PN0P_
*1733 rgb_mixer\.encoder2\.value\[3\]\$_SDFFE_PN0P_
*1734 rgb_mixer\.encoder2\.value\[4\]\$_SDFFE_PN0P_
*1735 rgb_mixer\.encoder2\.value\[5\]\$_SDFFE_PN0P_
*1736 rgb_mixer\.encoder2\.value\[6\]\$_SDFFE_PN0P_
*1737 rgb_mixer\.encoder2\.value\[7\]\$_SDFFE_PN0P_
*1738 rgb_mixer\.pwm0\.count\[0\]\$_SDFF_PN0_
*1739 rgb_mixer\.pwm0\.count\[1\]\$_SDFF_PN0_
*1740 rgb_mixer\.pwm0\.count\[2\]\$_SDFF_PN0_
*1741 rgb_mixer\.pwm0\.count\[3\]\$_SDFF_PN0_
*1742 rgb_mixer\.pwm0\.count\[4\]\$_SDFF_PN0_
*1743 rgb_mixer\.pwm0\.count\[5\]\$_SDFF_PN0_
*1744 rgb_mixer\.pwm0\.count\[6\]\$_SDFF_PN0_
*1745 rgb_mixer\.pwm0\.count\[7\]\$_SDFF_PN0_
*1746 rgb_mixer\.pwm0\.out\$_SDFF_PN0_
*1747 rgb_mixer\.pwm1\.count\[0\]\$_SDFF_PN0_
*1748 rgb_mixer\.pwm1\.count\[1\]\$_SDFF_PN0_
*1749 rgb_mixer\.pwm1\.count\[2\]\$_SDFF_PN0_
*1750 rgb_mixer\.pwm1\.count\[3\]\$_SDFF_PN0_
*1751 rgb_mixer\.pwm1\.count\[4\]\$_SDFF_PN0_
*1752 rgb_mixer\.pwm1\.count\[5\]\$_SDFF_PN0_
*1753 rgb_mixer\.pwm1\.count\[6\]\$_SDFF_PN0_
*1754 rgb_mixer\.pwm1\.count\[7\]\$_SDFF_PN0_
*1755 rgb_mixer\.pwm1\.out\$_SDFF_PN0_
*1756 rgb_mixer\.pwm2\.count\[0\]\$_SDFF_PN0_
*1757 rgb_mixer\.pwm2\.count\[1\]\$_SDFF_PN0_
*1758 rgb_mixer\.pwm2\.count\[2\]\$_SDFF_PN0_
*1759 rgb_mixer\.pwm2\.count\[3\]\$_SDFF_PN0_
*1760 rgb_mixer\.pwm2\.count\[4\]\$_SDFF_PN0_
*1761 rgb_mixer\.pwm2\.count\[5\]\$_SDFF_PN0_
*1762 rgb_mixer\.pwm2\.count\[6\]\$_SDFF_PN0_
*1763 rgb_mixer\.pwm2\.count\[7\]\$_SDFF_PN0_
*1764 rgb_mixer\.pwm2\.out\$_SDFF_PN0_
*1765 input1
*1766 input2
*1767 input3
*1768 input4
*1769 input5
*1770 input6
*1771 output7
*1772 output8
*1773 output9
*1774 output10
*1775 output11
*1776 output12
*1777 output13
*1778 output14
*1779 output15
*1780 output16
*1781 output17
*1782 fanout18
*1783 fanout19
*1784 fanout20
*1785 fanout21
*1786 fanout22
*1787 fanout23
*1788 fanout24
*1789 fanout25
*1790 fanout26
*1791 fanout27
*1792 fanout28
*1793 fanout29
*1794 fanout30
*1795 fanout31
*1796 fanout32
*1797 fanout33
*1798 fanout34
*1799 fanout35
*1800 fanout36
*1801 fanout37
*1802 fanout38
*1803 fanout39
*1804 fanout40
*1805 fanout41
*1806 fanout42
*1807 fanout43
*1808 fanout44
*1809 fanout45
*1810 fanout46
*1811 fanout47