*SPEF "ieee 1481-1999"
*DESIGN "tt_um_factory_test"
*DATE "14:31:37 Tuesday October 22, 2024"
*VENDOR "The OpenROAD Project"
*PROGRAM "OpenROAD"
*VERSION "v2.0-16649-g40811f37f"
*DESIGN_FLOW "NAME_SCOPE LOCAL" "PIN_CAP NONE"
*DIVIDER /
*DELIMITER :
*BUS_DELIMITER []
*T_UNIT 1 NS
*C_UNIT 1 PF
*R_UNIT 1 OHM
*L_UNIT 1 HENRY

*NAME_MAP
*1 _00_
*2 _01_
*3 _02_
*4 _03_
*5 _04_
*6 _05_
*7 _06_
*8 _07_
*9 _08_
*10 _09_
*11 _10_
*12 _11_
*13 _12_
*14 _13_
*15 _14_
*16 _15_
*17 _16_
*18 _17_
*19 _18_
*20 _19_
*21 _20_
*22 _21_
*23 _22_
*24 _23_
*25 _24_
*26 _25_
*27 _26_
*28 _27_
*29 _28_
*30 _29_
*31 _30_
*32 _31_
*33 _32_
*34 _33_
*35 _34_
*36 _35_
*37 _36_
*38 _37_
*39 _38_
*40 _39_
*41 clknet_0_clk
*42 clk
*43 cnt\[0\]
*44 cnt\[1\]
*45 cnt\[2\]
*46 cnt\[3\]
*47 cnt\[4\]
*48 cnt\[5\]
*49 cnt\[6\]
*50 cnt\[7\]
*51 ena
*52 rst_n
*53 rst_n_i
*54 ui_in[0]
*55 ui_in[1]
*56 ui_in[2]
*57 ui_in[3]
*58 ui_in[4]
*59 ui_in[5]
*60 ui_in[6]
*61 ui_in[7]
*62 uio_in[0]
*63 uio_in[1]
*64 uio_in[2]
*65 uio_in[3]
*66 uio_in[4]
*67 uio_in[5]
*68 uio_in[6]
*69 uio_in[7]
*70 uio_oe[0]
*71 uio_oe[1]
*72 uio_oe[2]
*73 uio_oe[3]
*74 uio_oe[4]
*75 uio_oe[5]
*76 uio_oe[6]
*77 uio_oe[7]
*78 uio_out[0]
*79 uio_out[1]
*80 uio_out[2]
*81 uio_out[3]
*82 uio_out[4]
*83 uio_out[5]
*84 uio_out[6]
*85 uio_out[7]
*86 uo_out[0]
*87 uo_out[1]
*88 uo_out[2]
*89 uo_out[3]
*90 uo_out[4]
*91 uo_out[5]
*92 uo_out[6]
*93 uo_out[7]
*96 net1
*97 net2
*98 net3
*99 net4
*100 net5
*101 net6
*102 net7
*103 net8
*104 net9
*105 net10
*106 net11
*107 net12
*108 net13
*109 net14
*110 net15
*111 net16
*112 net17
*113 net18
*114 net19
*115 net20
*116 net21
*117 net22
*118 net23
*119 net24
*120 net25
*121 net26
*122 net27
*123 net28
*124 net29
*125 net30
*126 net31
*127 net32
*128 net33
*129 net34
*130 net35
*131 net36
*132 net37
*133 net38
*134 net39
*135 net40
*136 net41
*137 net42
*138 net43
*139 net44
*140 clknet_1_0__leaf_clk
*141 clknet_1_1__leaf_clk
*142 net45
*143 net46
*144 _41_
*145 _42_
*146 _43_
*147 _44_
*148 _45_
*149 _46_
*150 _47_
*151 _48_
*152 _49_
*153 _50_
*154 _51_
*155 _52_
*156 _53_
*157 _54_
*158 _55_
*159 _56_
*160 _57_
*161 _58_
*162 _59_
*163 _60_
*164 _61_
*165 _62_
*166 _63_
*167 _64_
*168 _65_
*169 _66_
*170 _67_
*171 _68_
*172 _69_
*173 _70_
*174 _71_
*175 _72_
*176 _73_
*177 _74_
*178 _75_
*179 _76_
*180 _77_
*181 _78_
*182 _79_
*183 _80_
*184 _81_
*185 _82_
*186 _83_
*187 _84_
*188 _85_
*189 _86_
*190 _87_
*191 _88_
*192 clkbuf_0_clk
*193 _90_
*194 _91_
*195 _92_
*196 _93_
*197 _94_
*198 _95_
*199 _96_
*200 cnt\[0\]\$_DFF_PN0_
*201 cnt\[1\]\$_DFF_PN0_
*202 cnt\[2\]\$_DFF_PN0_
*203 cnt\[3\]\$_DFF_PN0_
*204 cnt\[4\]\$_DFF_PN0_
*205 cnt\[5\]\$_DFF_PN0_
*206 cnt\[6\]\$_DFF_PN0_
*207 cnt\[7\]\$_DFF_PN0_
*208 rst_n_i\$_DFF_PN0_
*209 input1
*210 input2
*211 input3
*212 input4
*213 input5
*214 input6
*215 input7
*216 input8
*217 input9
*218 input10
*219 input11
*220 input12
*221 input13
*222 input14
*223 input15
*224 input16
*225 input17
*226 output18
*227 output19
*228 output20
*229 output21
*230 output22
*231 output23
*232 output24
*233 output25
*234 output26
*235 output27
*236 output28
*237 output29
*238 output30
*239 output31
*240 output32
*241 output33
*242 output34
*243 output35
*244 output36
*245 output37
*246 output38
*247 output39
*248 output40
*249 output41
*250 fanout42
*251 fanout43
*252 rst_n_i\$_DFF_PN0__44
*253 clkbuf_1_0__f_clk
*254 clkbuf_1_1__f_clk
*255 clkload0
*256 fanout1
*257 fanout2
*258 FILLER_0_0
*259 FILLER_0_7
*260 FILLER_0_14
*261 FILLER_0_21
*262 FILLER_0_28
*263 FILLER_0_35
*264 FILLER_0_42
*265 FILLER_0_49
*266 FILLER_0_56
*267 FILLER_0_63
*268 FILLER_0_70
*269 FILLER_0_77
*270 FILLER_0_84
*271 FILLER_0_91
*272 FILLER_0_98
*273 FILLER_0_105
*274 FILLER_0_112
*275 FILLER_0_119
*276 FILLER_0_126
*277 FILLER_0_133
*278 FILLER_0_140
*279 FILLER_0_147
*280 FILLER_0_154
*281 FILLER_0_161
*282 FILLER_0_168
*283 FILLER_0_175
*284 FILLER_0_182
*285 FILLER_0_189
*286 FILLER_0_196
*287 FILLER_0_203
*288 FILLER_0_210
*289 FILLER_0_217
*290 FILLER_0_224
*291 FILLER_0_231
*292 FILLER_0_238
*293 FILLER_0_245
*294 FILLER_0_252
*295 FILLER_0_259
*296 FILLER_0_266
*297 FILLER_0_273
*298 FILLER_0_280
*299 FILLER_0_287
*300 FILLER_0_294
*301 FILLER_0_301
*302 FILLER_0_308
*303 FILLER_0_315
*304 FILLER_0_322
*305 FILLER_0_329
*306 FILLER_0_336
*307 FILLER_0_343
*308 FILLER_0_350
*309 FILLER_0_357
*310 FILLER_0_364
*311 FILLER_0_371
*312 FILLER_0_378
*313 FILLER_0_385
*314 FILLER_0_392
*315 FILLER_0_399
*316 FILLER_0_406
*317 FILLER_0_413
*318 FILLER_0_420
*319 FILLER_0_427
*320 FILLER_0_429
*321 FILLER_1_0
*322 FILLER_1_7
*323 FILLER_1_14
*324 FILLER_1_21
*325 FILLER_1_28
*326 FILLER_1_35
*327 FILLER_1_42
*328 FILLER_1_49
*329 FILLER_1_56
*330 FILLER_1_63
*331 FILLER_1_70
*332 FILLER_1_77
*333 FILLER_1_84
*334 FILLER_1_91
*335 FILLER_1_98
*336 FILLER_1_105
*337 FILLER_1_112
*338 FILLER_1_119
*339 FILLER_1_126
*340 FILLER_1_133
*341 FILLER_1_140
*342 FILLER_1_147
*343 FILLER_1_154
*344 FILLER_1_161
*345 FILLER_1_168
*346 FILLER_1_175
*347 FILLER_1_182
*348 FILLER_1_189
*349 FILLER_1_196
*350 FILLER_1_203
*351 FILLER_1_210
*352 FILLER_1_217
*353 FILLER_1_224
*354 FILLER_1_231
*355 FILLER_1_238
*356 FILLER_1_245
*357 FILLER_1_252
*358 FILLER_1_259
*359 FILLER_1_266
*360 FILLER_1_273
*361 FILLER_1_280
*362 FILLER_1_287
*363 FILLER_1_294
*364 FILLER_1_301
*365 FILLER_1_308
*366 FILLER_1_315
*367 FILLER_1_322
*368 FILLER_1_329
*369 FILLER_1_336
*370 FILLER_1_343
*371 FILLER_1_350
*372 FILLER_1_357
*373 FILLER_1_364
*374 FILLER_1_371
*375 FILLER_1_378
*376 FILLER_1_385
*377 FILLER_1_392
*378 FILLER_1_399
*379 FILLER_1_406
*380 FILLER_1_413
*381 FILLER_1_420
*382 FILLER_1_427
*383 FILLER_1_429
*384 FILLER_2_0
*385 FILLER_2_7
*386 FILLER_2_14
*387 FILLER_2_21
*388 FILLER_2_28
*389 FILLER_2_35
*390 FILLER_2_42
*391 FILLER_2_49
*392 FILLER_2_56
*393 FILLER_2_63
*394 FILLER_2_70
*395 FILLER_2_77
*396 FILLER_2_84
*397 FILLER_2_91
*398 FILLER_2_98
*399 FILLER_2_105
*400 FILLER_2_112
*401 FILLER_2_119
*402 FILLER_2_126
*403 FILLER_2_133
*404 FILLER_2_140
*405 FILLER_2_147
*406 FILLER_2_154
*407 FILLER_2_161
*408 FILLER_2_168
*409 FILLER_2_175
*410 FILLER_2_182
*411 FILLER_2_189
*412 FILLER_2_196
*413 FILLER_2_203
*414 FILLER_2_210
*415 FILLER_2_217
*416 FILLER_2_224
*417 FILLER_2_231
*418 FILLER_2_238
*419 FILLER_2_245
*420 FILLER_2_252
*421 FILLER_2_259
*422 FILLER_2_266
*423 FILLER_2_273
*424 FILLER_2_280
*425 FILLER_2_287
*426 FILLER_2_294
*427 FILLER_2_301
*428 FILLER_2_308
*429 FILLER_2_315
*430 FILLER_2_322
*431 FILLER_2_329
*432 FILLER_2_336
*433 FILLER_2_343
*434 FILLER_2_350
*435 FILLER_2_357
*436 FILLER_2_364
*437 FILLER_2_371
*438 FILLER_2_378
*439 FILLER_2_385
*440 FILLER_2_392
*441 FILLER_2_399
*442 FILLER_2_406
*443 FILLER_2_413
*444 FILLER_2_420
*445 FILLER_2_427
*446 FILLER_2_429
*447 FILLER_3_0
*448 FILLER_3_7
*449 FILLER_3_14
*450 FILLER_3_21
*451 FILLER_3_28
*452 FILLER_3_35
*453 FILLER_3_42
*454 FILLER_3_49
*455 FILLER_3_56
*456 FILLER_3_63
*457 FILLER_3_70
*458 FILLER_3_77
*459 FILLER_3_84
*460 FILLER_3_91
*461 FILLER_3_98
*462 FILLER_3_105
*463 FILLER_3_112
*464 FILLER_3_119
*465 FILLER_3_126
*466 FILLER_3_133
*467 FILLER_3_140
*468 FILLER_3_147
*469 FILLER_3_154
*470 FILLER_3_161
*471 FILLER_3_168
*472 FILLER_3_175
*473 FILLER_3_182
*474 FILLER_3_189
*475 FILLER_3_196
*476 FILLER_3_203
*477 FILLER_3_210
*478 FILLER_3_217
*479 FILLER_3_224
*480 FILLER_3_231
*481 FILLER_3_238
*482 FILLER_3_245
*483 FILLER_3_252
*484 FILLER_3_259
*485 FILLER_3_266
*486 FILLER_3_273
*487 FILLER_3_280
*488 FILLER_3_287
*489 FILLER_3_294
*490 FILLER_3_301
*491 FILLER_3_308
*492 FILLER_3_315
*493 FILLER_3_322
*494 FILLER_3_329
*495 FILLER_3_336
*496 FILLER_3_343
*497 FILLER_3_350
*498 FILLER_3_357
*499 FILLER_3_364
*500 FILLER_3_371
*501 FILLER_3_378
*502 FILLER_3_385
*503 FILLER_3_392
*504 FILLER_3_399
*505 FILLER_3_406
*506 FILLER_3_413
*507 FILLER_3_420
*508 FILLER_3_427
*509 FILLER_3_429
*510 FILLER_4_0
*511 FILLER_4_7
*512 FILLER_4_14
*513 FILLER_4_21
*514 FILLER_4_28
*515 FILLER_4_35
*516 FILLER_4_42
*517 FILLER_4_49
*518 FILLER_4_56
*519 FILLER_4_63
*520 FILLER_4_70
*521 FILLER_4_77
*522 FILLER_4_84
*523 FILLER_4_91
*524 FILLER_4_98
*525 FILLER_4_105
*526 FILLER_4_112
*527 FILLER_4_119
*528 FILLER_4_126
*529 FILLER_4_133
*530 FILLER_4_140
*531 FILLER_4_147
*532 FILLER_4_154
*533 FILLER_4_161
*534 FILLER_4_168
*535 FILLER_4_175
*536 FILLER_4_182
*537 FILLER_4_189
*538 FILLER_4_196
*539 FILLER_4_203
*540 FILLER_4_210
*541 FILLER_4_217
*542 FILLER_4_224
*543 FILLER_4_231
*544 FILLER_4_238
*545 FILLER_4_245
*546 FILLER_4_252
*547 FILLER_4_259
*548 FILLER_4_266
*549 FILLER_4_273
*550 FILLER_4_280
*551 FILLER_4_287
*552 FILLER_4_294
*553 FILLER_4_301
*554 FILLER_4_308
*555 FILLER_4_315
*556 FILLER_4_322
*557 FILLER_4_329
*558 FILLER_4_336
*559 FILLER_4_343
*560 FILLER_4_350
*561 FILLER_4_357
*562 FILLER_4_364
*563 FILLER_4_371
*564 FILLER_4_378
*565 FILLER_4_385
*566 FILLER_4_392
*567 FILLER_4_399
*568 FILLER_4_406
*569 FILLER_4_413
*570 FILLER_4_420
*571 FILLER_4_427
*572 FILLER_4_429
*573 FILLER_5_0
*574 FILLER_5_7
*575 FILLER_5_14
*576 FILLER_5_21
*577 FILLER_5_28
*578 FILLER_5_35
*579 FILLER_5_42
*580 FILLER_5_49
*581 FILLER_5_56
*582 FILLER_5_63
*583 FILLER_5_70
*584 FILLER_5_77
*585 FILLER_5_84
*586 FILLER_5_91
*587 FILLER_5_98
*588 FILLER_5_105
*589 FILLER_5_112
*590 FILLER_5_119
*591 FILLER_5_126
*592 FILLER_5_133
*593 FILLER_5_140
*594 FILLER_5_147
*595 FILLER_5_154
*596 FILLER_5_161
*597 FILLER_5_168
*598 FILLER_5_175
*599 FILLER_5_182
*600 FILLER_5_189
*601 FILLER_5_196
*602 FILLER_5_203
*603 FILLER_5_210
*604 FILLER_5_217
*605 FILLER_5_224
*606 FILLER_5_231
*607 FILLER_5_238
*608 FILLER_5_245
*609 FILLER_5_252
*610 FILLER_5_259
*611 FILLER_5_266
*612 FILLER_5_273
*613 FILLER_5_280
*614 FILLER_5_287
*615 FILLER_5_294
*616 FILLER_5_301
*617 FILLER_5_308
*618 FILLER_5_315
*619 FILLER_5_322
*620 FILLER_5_329
*621 FILLER_5_336
*622 FILLER_5_343
*623 FILLER_5_350
*624 FILLER_5_357
*625 FILLER_5_364
*626 FILLER_5_371
*627 FILLER_5_378
*628 FILLER_5_385
*629 FILLER_5_392
*630 FILLER_5_399
*631 FILLER_5_406
*632 FILLER_5_413
*633 FILLER_5_420
*634 FILLER_5_427
*635 FILLER_5_429
*636 FILLER_6_0
*637 FILLER_6_7
*638 FILLER_6_14
*639 FILLER_6_21
*640 FILLER_6_28
*641 FILLER_6_35
*642 FILLER_6_42
*643 FILLER_6_49
*644 FILLER_6_56
*645 FILLER_6_63
*646 FILLER_6_70
*647 FILLER_6_77
*648 FILLER_6_84
*649 FILLER_6_91
*650 FILLER_6_98
*651 FILLER_6_105
*652 FILLER_6_112
*653 FILLER_6_119
*654 FILLER_6_126
*655 FILLER_6_133
*656 FILLER_6_140
*657 FILLER_6_147
*658 FILLER_6_154
*659 FILLER_6_161
*660 FILLER_6_168
*661 FILLER_6_175
*662 FILLER_6_182
*663 FILLER_6_189
*664 FILLER_6_196
*665 FILLER_6_203
*666 FILLER_6_210
*667 FILLER_6_217
*668 FILLER_6_224
*669 FILLER_6_231
*670 FILLER_6_238
*671 FILLER_6_245
*672 FILLER_6_252
*673 FILLER_6_259
*674 FILLER_6_266
*675 FILLER_6_273
*676 FILLER_6_280
*677 FILLER_6_287
*678 FILLER_6_294
*679 FILLER_6_301
*680 FILLER_6_308
*681 FILLER_6_315
*682 FILLER_6_322
*683 FILLER_6_329
*684 FILLER_6_336
*685 FILLER_6_343
*686 FILLER_6_350
*687 FILLER_6_357
*688 FILLER_6_364
*689 FILLER_6_371
*690 FILLER_6_378
*691 FILLER_6_385
*692 FILLER_6_392
*693 FILLER_6_399
*694 FILLER_6_406
*695 FILLER_6_413
*696 FILLER_6_420
*697 FILLER_6_427
*698 FILLER_6_429
*699 FILLER_7_0
*700 FILLER_7_7
*701 FILLER_7_14
*702 FILLER_7_21
*703 FILLER_7_28
*704 FILLER_7_35
*705 FILLER_7_42
*706 FILLER_7_49
*707 FILLER_7_56
*708 FILLER_7_63
*709 FILLER_7_70
*710 FILLER_7_77
*711 FILLER_7_84
*712 FILLER_7_91
*713 FILLER_7_98
*714 FILLER_7_105
*715 FILLER_7_112
*716 FILLER_7_119
*717 FILLER_7_126
*718 FILLER_7_133
*719 FILLER_7_140
*720 FILLER_7_147
*721 FILLER_7_154
*722 FILLER_7_161
*723 FILLER_7_168
*724 FILLER_7_175
*725 FILLER_7_182
*726 FILLER_7_189
*727 FILLER_7_196
*728 FILLER_7_203
*729 FILLER_7_210
*730 FILLER_7_217
*731 FILLER_7_224
*732 FILLER_7_231
*733 FILLER_7_238
*734 FILLER_7_245
*735 FILLER_7_252
*736 FILLER_7_259
*737 FILLER_7_266
*738 FILLER_7_273
*739 FILLER_7_280
*740 FILLER_7_287
*741 FILLER_7_294
*742 FILLER_7_301
*743 FILLER_7_308
*744 FILLER_7_315
*745 FILLER_7_322
*746 FILLER_7_329
*747 FILLER_7_336
*748 FILLER_7_343
*749 FILLER_7_350
*750 FILLER_7_357
*751 FILLER_7_364
*752 FILLER_7_371
*753 FILLER_7_378
*754 FILLER_7_385
*755 FILLER_7_392
*756 FILLER_7_399
*757 FILLER_7_406
*758 FILLER_7_413
*759 FILLER_7_420
*760 FILLER_7_427
*761 FILLER_7_429
*762 FILLER_8_0
*763 FILLER_8_7
*764 FILLER_8_14
*765 FILLER_8_21
*766 FILLER_8_28
*767 FILLER_8_35
*768 FILLER_8_42
*769 FILLER_8_49
*770 FILLER_8_56
*771 FILLER_8_63
*772 FILLER_8_70
*773 FILLER_8_77
*774 FILLER_8_84
*775 FILLER_8_91
*776 FILLER_8_98
*777 FILLER_8_105
*778 FILLER_8_112
*779 FILLER_8_119
*780 FILLER_8_126
*781 FILLER_8_133
*782 FILLER_8_140
*783 FILLER_8_147
*784 FILLER_8_154
*785 FILLER_8_161
*786 FILLER_8_168
*787 FILLER_8_175
*788 FILLER_8_182
*789 FILLER_8_189
*790 FILLER_8_196
*791 FILLER_8_203
*792 FILLER_8_210
*793 FILLER_8_217
*794 FILLER_8_224
*795 FILLER_8_231
*796 FILLER_8_238
*797 FILLER_8_245
*798 FILLER_8_252
*799 FILLER_8_259
*800 FILLER_8_266
*801 FILLER_8_273
*802 FILLER_8_280
*803 FILLER_8_287
*804 FILLER_8_294
*805 FILLER_8_301
*806 FILLER_8_308
*807 FILLER_8_315
*808 FILLER_8_322
*809 FILLER_8_329
*810 FILLER_8_336
*811 FILLER_8_343
*812 FILLER_8_350
*813 FILLER_8_357
*814 FILLER_8_364
*815 FILLER_8_371
*816 FILLER_8_378
*817 FILLER_8_385
*818 FILLER_8_392
*819 FILLER_8_399
*820 FILLER_8_406
*821 FILLER_8_413
*822 FILLER_8_420
*823 FILLER_8_427
*824 FILLER_8_429
*825 FILLER_9_0
*826 FILLER_9_7
*827 FILLER_9_14
*828 FILLER_9_21
*829 FILLER_9_28
*830 FILLER_9_35
*831 FILLER_9_42
*832 FILLER_9_49
*833 FILLER_9_56
*834 FILLER_9_63
*835 FILLER_9_70
*836 FILLER_9_77
*837 FILLER_9_84
*838 FILLER_9_91
*839 FILLER_9_98
*840 FILLER_9_105
*841 FILLER_9_112
*842 FILLER_9_119
*843 FILLER_9_126
*844 FILLER_9_133
*845 FILLER_9_140
*846 FILLER_9_147
*847 FILLER_9_154
*848 FILLER_9_161
*849 FILLER_9_168
*850 FILLER_9_175
*851 FILLER_9_182
*852 FILLER_9_189
*853 FILLER_9_196
*854 FILLER_9_203
*855 FILLER_9_210
*856 FILLER_9_217
*857 FILLER_9_224
*858 FILLER_9_231
*859 FILLER_9_238
*860 FILLER_9_245
*861 FILLER_9_252
*862 FILLER_9_259
*863 FILLER_9_266
*864 FILLER_9_273
*865 FILLER_9_280
*866 FILLER_9_287
*867 FILLER_9_294
*868 FILLER_9_301
*869 FILLER_9_308
*870 FILLER_9_315
*871 FILLER_9_322
*872 FILLER_9_329
*873 FILLER_9_336
*874 FILLER_9_343
*875 FILLER_9_350
*876 FILLER_9_357
*877 FILLER_9_364
*878 FILLER_9_371
*879 FILLER_9_378
*880 FILLER_9_385
*881 FILLER_9_392
*882 FILLER_9_399
*883 FILLER_9_406
*884 FILLER_9_413
*885 FILLER_9_420
*886 FILLER_9_427
*887 FILLER_9_429
*888 FILLER_10_0
*889 FILLER_10_7
*890 FILLER_10_14
*891 FILLER_10_21
*892 FILLER_10_28
*893 FILLER_10_35
*894 FILLER_10_42
*895 FILLER_10_49
*896 FILLER_10_56
*897 FILLER_10_63
*898 FILLER_10_70
*899 FILLER_10_77
*900 FILLER_10_84
*901 FILLER_10_91
*902 FILLER_10_98
*903 FILLER_10_105
*904 FILLER_10_112
*905 FILLER_10_119
*906 FILLER_10_126
*907 FILLER_10_133
*908 FILLER_10_140
*909 FILLER_10_147
*910 FILLER_10_154
*911 FILLER_10_161
*912 FILLER_10_168
*913 FILLER_10_175
*914 FILLER_10_182
*915 FILLER_10_189
*916 FILLER_10_196
*917 FILLER_10_203
*918 FILLER_10_210
*919 FILLER_10_217
*920 FILLER_10_224
*921 FILLER_10_231
*922 FILLER_10_238
*923 FILLER_10_245
*924 FILLER_10_252
*925 FILLER_10_259
*926 FILLER_10_266
*927 FILLER_10_273
*928 FILLER_10_280
*929 FILLER_10_287
*930 FILLER_10_294
*931 FILLER_10_301
*932 FILLER_10_308
*933 FILLER_10_315
*934 FILLER_10_322
*935 FILLER_10_329
*936 FILLER_10_336
*937 FILLER_10_343
*938 FILLER_10_350
*939 FILLER_10_357
*940 FILLER_10_364
*941 FILLER_10_371
*942 FILLER_10_378
*943 FILLER_10_385
*944 FILLER_10_392
*945 FILLER_10_399
*946 FILLER_10_406
*947 FILLER_10_413
*948 FILLER_10_420
*949 FILLER_10_427
*950 FILLER_10_429
*951 FILLER_11_0
*952 FILLER_11_7
*953 FILLER_11_14
*954 FILLER_11_21
*955 FILLER_11_28
*956 FILLER_11_35
*957 FILLER_11_42
*958 FILLER_11_49
*959 FILLER_11_56
*960 FILLER_11_63
*961 FILLER_11_70
*962 FILLER_11_77
*963 FILLER_11_84
*964 FILLER_11_91
*965 FILLER_11_98
*966 FILLER_11_105
*967 FILLER_11_112
*968 FILLER_11_119
*969 FILLER_11_126
*970 FILLER_11_133
*971 FILLER_11_140
*972 FILLER_11_147
*973 FILLER_11_154
*974 FILLER_11_161
*975 FILLER_11_168
*976 FILLER_11_175
*977 FILLER_11_182
*978 FILLER_11_189
*979 FILLER_11_196
*980 FILLER_11_203
*981 FILLER_11_210
*982 FILLER_11_217
*983 FILLER_11_224
*984 FILLER_11_231
*985 FILLER_11_238
*986 FILLER_11_245
*987 FILLER_11_252
*988 FILLER_11_259
*989 FILLER_11_266
*990 FILLER_11_273
*991 FILLER_11_280
*992 FILLER_11_287
*993 FILLER_11_294
*994 FILLER_11_301
*995 FILLER_11_308
*996 FILLER_11_315
*997 FILLER_11_322
*998 FILLER_11_329
*999 FILLER_11_336
*1000 FILLER_11_343
*1001 FILLER_11_350
*1002 FILLER_11_357
*1003 FILLER_11_364
*1004 FILLER_11_371
*1005 FILLER_11_378
*1006 FILLER_11_385
*1007 FILLER_11_392
*1008 FILLER_11_399
*1009 FILLER_11_406
*1010 FILLER_11_413
*1011 FILLER_11_420
*1012 FILLER_11_427
*1013 FILLER_11_429
*1014 FILLER_12_0
*1015 FILLER_12_7
*1016 FILLER_12_14
*1017 FILLER_12_21
*1018 FILLER_12_28
*1019 FILLER_12_35
*1020 FILLER_12_42
*1021 FILLER_12_49
*1022 FILLER_12_56
*1023 FILLER_12_63
*1024 FILLER_12_70
*1025 FILLER_12_77
*1026 FILLER_12_84
*1027 FILLER_12_91
*1028 FILLER_12_98
*1029 FILLER_12_105
*1030 FILLER_12_112
*1031 FILLER_12_119
*1032 FILLER_12_126
*1033 FILLER_12_133
*1034 FILLER_12_140
*1035 FILLER_12_147
*1036 FILLER_12_154
*1037 FILLER_12_161
*1038 FILLER_12_168
*1039 FILLER_12_175
*1040 FILLER_12_182
*1041 FILLER_12_189
*1042 FILLER_12_196
*1043 FILLER_12_203
*1044 FILLER_12_210
*1045 FILLER_12_217
*1046 FILLER_12_224
*1047 FILLER_12_231
*1048 FILLER_12_238
*1049 FILLER_12_245
*1050 FILLER_12_252
*1051 FILLER_12_259
*1052 FILLER_12_266
*1053 FILLER_12_273
*1054 FILLER_12_280
*1055 FILLER_12_287
*1056 FILLER_12_294
*1057 FILLER_12_301
*1058 FILLER_12_308
*1059 FILLER_12_315
*1060 FILLER_12_322
*1061 FILLER_12_329
*1062 FILLER_12_336
*1063 FILLER_12_343
*1064 FILLER_12_350
*1065 FILLER_12_357
*1066 FILLER_12_364
*1067 FILLER_12_371
*1068 FILLER_12_378
*1069 FILLER_12_385
*1070 FILLER_12_392
*1071 FILLER_12_399
*1072 FILLER_12_406
*1073 FILLER_12_413
*1074 FILLER_12_420
*1075 FILLER_12_427
*1076 FILLER_12_429
*1077 FILLER_13_0
*1078 FILLER_13_7
*1079 FILLER_13_14
*1080 FILLER_13_21
*1081 FILLER_13_28
*1082 FILLER_13_35
*1083 FILLER_13_42
*1084 FILLER_13_49
*1085 FILLER_13_56
*1086 FILLER_13_63
*1087 FILLER_13_70
*1088 FILLER_13_77
*1089 FILLER_13_84
*1090 FILLER_13_91
*1091 FILLER_13_98
*1092 FILLER_13_105
*1093 FILLER_13_112
*1094 FILLER_13_119
*1095 FILLER_13_126
*1096 FILLER_13_133
*1097 FILLER_13_140
*1098 FILLER_13_147
*1099 FILLER_13_154
*1100 FILLER_13_161
*1101 FILLER_13_168
*1102 FILLER_13_175
*1103 FILLER_13_182
*1104 FILLER_13_189
*1105 FILLER_13_196
*1106 FILLER_13_203
*1107 FILLER_13_210
*1108 FILLER_13_217
*1109 FILLER_13_224
*1110 FILLER_13_231
*1111 FILLER_13_238
*1112 FILLER_13_245
*1113 FILLER_13_252
*1114 FILLER_13_259
*1115 FILLER_13_266
*1116 FILLER_13_273
*1117 FILLER_13_280
*1118 FILLER_13_287
*1119 FILLER_13_294
*1120 FILLER_13_301
*1121 FILLER_13_308
*1122 FILLER_13_315
*1123 FILLER_13_322
*1124 FILLER_13_329
*1125 FILLER_13_336
*1126 FILLER_13_343
*1127 FILLER_13_350
*1128 FILLER_13_357
*1129 FILLER_13_364
*1130 FILLER_13_371
*1131 FILLER_13_378
*1132 FILLER_13_385
*1133 FILLER_13_392
*1134 FILLER_13_399
*1135 FILLER_13_406
*1136 FILLER_13_413
*1137 FILLER_13_420
*1138 FILLER_13_427
*1139 FILLER_13_429
*1140 FILLER_14_0
*1141 FILLER_14_7
*1142 FILLER_14_14
*1143 FILLER_14_21
*1144 FILLER_14_28
*1145 FILLER_14_35
*1146 FILLER_14_42
*1147 FILLER_14_49
*1148 FILLER_14_56
*1149 FILLER_14_63
*1150 FILLER_14_70
*1151 FILLER_14_77
*1152 FILLER_14_84
*1153 FILLER_14_91
*1154 FILLER_14_98
*1155 FILLER_14_105
*1156 FILLER_14_112
*1157 FILLER_14_119
*1158 FILLER_14_126
*1159 FILLER_14_133
*1160 FILLER_14_140
*1161 FILLER_14_147
*1162 FILLER_14_154
*1163 FILLER_14_161
*1164 FILLER_14_168
*1165 FILLER_14_175
*1166 FILLER_14_182
*1167 FILLER_14_189
*1168 FILLER_14_196
*1169 FILLER_14_203
*1170 FILLER_14_210
*1171 FILLER_14_217
*1172 FILLER_14_224
*1173 FILLER_14_231
*1174 FILLER_14_238
*1175 FILLER_14_245
*1176 FILLER_14_252
*1177 FILLER_14_259
*1178 FILLER_14_266
*1179 FILLER_14_273
*1180 FILLER_14_280
*1181 FILLER_14_287
*1182 FILLER_14_294
*1183 FILLER_14_301
*1184 FILLER_14_308
*1185 FILLER_14_315
*1186 FILLER_14_322
*1187 FILLER_14_329
*1188 FILLER_14_336
*1189 FILLER_14_343
*1190 FILLER_14_350
*1191 FILLER_14_357
*1192 FILLER_14_364
*1193 FILLER_14_371
*1194 FILLER_14_378
*1195 FILLER_14_385
*1196 FILLER_14_392
*1197 FILLER_14_399
*1198 FILLER_14_406
*1199 FILLER_14_413
*1200 FILLER_14_420
*1201 FILLER_14_427
*1202 FILLER_14_429
*1203 FILLER_15_0
*1204 FILLER_15_7
*1205 FILLER_15_14
*1206 FILLER_15_21
*1207 FILLER_15_28
*1208 FILLER_15_35
*1209 FILLER_15_42
*1210 FILLER_15_49
*1211 FILLER_15_56
*1212 FILLER_15_63
*1213 FILLER_15_70
*1214 FILLER_15_77
*1215 FILLER_15_84
*1216 FILLER_15_91
*1217 FILLER_15_98
*1218 FILLER_15_105
*1219 FILLER_15_112
*1220 FILLER_15_119
*1221 FILLER_15_126
*1222 FILLER_15_133
*1223 FILLER_15_140
*1224 FILLER_15_147
*1225 FILLER_15_154
*1226 FILLER_15_161
*1227 FILLER_15_168
*1228 FILLER_15_175
*1229 FILLER_15_182
*1230 FILLER_15_189
*1231 FILLER_15_196
*1232 FILLER_15_203
*1233 FILLER_15_210
*1234 FILLER_15_217
*1235 FILLER_15_224
*1236 FILLER_15_231
*1237 FILLER_15_238
*1238 FILLER_15_245
*1239 FILLER_15_252
*1240 FILLER_15_259
*1241 FILLER_15_266
*1242 FILLER_15_273
*1243 FILLER_15_280
*1244 FILLER_15_287
*1245 FILLER_15_294
*1246 FILLER_15_301
*1247 FILLER_15_308
*1248 FILLER_15_315
*1249 FILLER_15_322
*1250 FILLER_15_329
*1251 FILLER_15_336
*1252 FILLER_15_343
*1253 FILLER_15_350
*1254 FILLER_15_357
*1255 FILLER_15_364
*1256 FILLER_15_371
*1257 FILLER_15_378
*1258 FILLER_15_385
*1259 FILLER_15_392
*1260 FILLER_15_399
*1261 FILLER_15_406
*1262 FILLER_15_413
*1263 FILLER_15_420
*1264 FILLER_15_427
*1265 FILLER_15_429
*1266 FILLER_16_0
*1267 FILLER_16_7
*1268 FILLER_16_14
*1269 FILLER_16_21
*1270 FILLER_16_28
*1271 FILLER_16_35
*1272 FILLER_16_42
*1273 FILLER_16_49
*1274 FILLER_16_56
*1275 FILLER_16_63
*1276 FILLER_16_70
*1277 FILLER_16_77
*1278 FILLER_16_84
*1279 FILLER_16_91
*1280 FILLER_16_98
*1281 FILLER_16_105
*1282 FILLER_16_112
*1283 FILLER_16_119
*1284 FILLER_16_126
*1285 FILLER_16_133
*1286 FILLER_16_140
*1287 FILLER_16_147
*1288 FILLER_16_154
*1289 FILLER_16_161
*1290 FILLER_16_168
*1291 FILLER_16_175
*1292 FILLER_16_182
*1293 FILLER_16_189
*1294 FILLER_16_196
*1295 FILLER_16_203
*1296 FILLER_16_210
*1297 FILLER_16_217
*1298 FILLER_16_224
*1299 FILLER_16_231
*1300 FILLER_16_238
*1301 FILLER_16_245
*1302 FILLER_16_252
*1303 FILLER_16_259
*1304 FILLER_16_266
*1305 FILLER_16_273
*1306 FILLER_16_280
*1307 FILLER_16_287
*1308 FILLER_16_294
*1309 FILLER_16_301
*1310 FILLER_16_308
*1311 FILLER_16_315
*1312 FILLER_16_322
*1313 FILLER_16_329
*1314 FILLER_16_336
*1315 FILLER_16_343
*1316 FILLER_16_350
*1317 FILLER_16_357
*1318 FILLER_16_364
*1319 FILLER_16_371
*1320 FILLER_16_378
*1321 FILLER_16_385
*1322 FILLER_16_392
*1323 FILLER_16_399
*1324 FILLER_16_406
*1325 FILLER_16_413
*1326 FILLER_16_420
*1327 FILLER_16_427
*1328 FILLER_16_429
*1329 FILLER_17_0
*1330 FILLER_17_7
*1331 FILLER_17_14
*1332 FILLER_17_21
*1333 FILLER_17_28
*1334 FILLER_17_35
*1335 FILLER_17_42
*1336 FILLER_17_49
*1337 FILLER_17_56
*1338 FILLER_17_63
*1339 FILLER_17_70
*1340 FILLER_17_77
*1341 FILLER_17_84
*1342 FILLER_17_91
*1343 FILLER_17_98
*1344 FILLER_17_105
*1345 FILLER_17_112
*1346 FILLER_17_119
*1347 FILLER_17_126
*1348 FILLER_17_133
*1349 FILLER_17_140
*1350 FILLER_17_147
*1351 FILLER_17_154
*1352 FILLER_17_161
*1353 FILLER_17_168
*1354 FILLER_17_175
*1355 FILLER_17_182
*1356 FILLER_17_189
*1357 FILLER_17_196
*1358 FILLER_17_203
*1359 FILLER_17_210
*1360 FILLER_17_217
*1361 FILLER_17_224
*1362 FILLER_17_231
*1363 FILLER_17_238
*1364 FILLER_17_245
*1365 FILLER_17_252
*1366 FILLER_17_259
*1367 FILLER_17_266
*1368 FILLER_17_273
*1369 FILLER_17_280
*1370 FILLER_17_287
*1371 FILLER_17_294
*1372 FILLER_17_301
*1373 FILLER_17_308
*1374 FILLER_17_315
*1375 FILLER_17_322
*1376 FILLER_17_329
*1377 FILLER_17_336
*1378 FILLER_17_343
*1379 FILLER_17_350
*1380 FILLER_17_357
*1381 FILLER_17_364
*1382 FILLER_17_371
*1383 FILLER_17_378
*1384 FILLER_17_385
*1385 FILLER_17_392
*1386 FILLER_17_399
*1387 FILLER_17_406
*1388 FILLER_17_413
*1389 FILLER_17_420
*1390 FILLER_17_427
*1391 FILLER_17_429
*1392 FILLER_18_0
*1393 FILLER_18_7
*1394 FILLER_18_14
*1395 FILLER_18_21
*1396 FILLER_18_28
*1397 FILLER_18_35
*1398 FILLER_18_42
*1399 FILLER_18_49
*1400 FILLER_18_56
*1401 FILLER_18_63
*1402 FILLER_18_70
*1403 FILLER_18_77
*1404 FILLER_18_84
*1405 FILLER_18_91
*1406 FILLER_18_98
*1407 FILLER_18_105
*1408 FILLER_18_112
*1409 FILLER_18_119
*1410 FILLER_18_126
*1411 FILLER_18_133
*1412 FILLER_18_140
*1413 FILLER_18_147
*1414 FILLER_18_154
*1415 FILLER_18_161
*1416 FILLER_18_168
*1417 FILLER_18_175
*1418 FILLER_18_182
*1419 FILLER_18_189
*1420 FILLER_18_196
*1421 FILLER_18_203
*1422 FILLER_18_210
*1423 FILLER_18_217
*1424 FILLER_18_224
*1425 FILLER_18_231
*1426 FILLER_18_238
*1427 FILLER_18_245
*1428 FILLER_18_252
*1429 FILLER_18_259
*1430 FILLER_18_266
*1431 FILLER_18_273
*1432 FILLER_18_280
*1433 FILLER_18_287
*1434 FILLER_18_294
*1435 FILLER_18_301
*1436 FILLER_18_308
*1437 FILLER_18_315
*1438 FILLER_18_322
*1439 FILLER_18_329
*1440 FILLER_18_336
*1441 FILLER_18_343
*1442 FILLER_18_350
*1443 FILLER_18_357
*1444 FILLER_18_364
*1445 FILLER_18_371
*1446 FILLER_18_378
*1447 FILLER_18_385
*1448 FILLER_18_392
*1449 FILLER_18_399
*1450 FILLER_18_406
*1451 FILLER_18_413
*1452 FILLER_18_420
*1453 FILLER_18_427
*1454 FILLER_18_429
*1455 FILLER_19_0
*1456 FILLER_19_7
*1457 FILLER_19_14
*1458 FILLER_19_21
*1459 FILLER_19_28
*1460 FILLER_19_35
*1461 FILLER_19_42
*1462 FILLER_19_49
*1463 FILLER_19_56
*1464 FILLER_19_63
*1465 FILLER_19_70
*1466 FILLER_19_77
*1467 FILLER_19_84
*1468 FILLER_19_91
*1469 FILLER_19_98
*1470 FILLER_19_105
*1471 FILLER_19_112
*1472 FILLER_19_119
*1473 FILLER_19_126
*1474 FILLER_19_133
*1475 FILLER_19_140
*1476 FILLER_19_147
*1477 FILLER_19_154
*1478 FILLER_19_161
*1479 FILLER_19_168
*1480 FILLER_19_175
*1481 FILLER_19_182
*1482 FILLER_19_189
*1483 FILLER_19_196
*1484 FILLER_19_203
*1485 FILLER_19_210
*1486 FILLER_19_217
*1487 FILLER_19_224
*1488 FILLER_19_231
*1489 FILLER_19_238
*1490 FILLER_19_245
*1491 FILLER_19_252
*1492 FILLER_19_259
*1493 FILLER_19_266
*1494 FILLER_19_273
*1495 FILLER_19_280
*1496 FILLER_19_287
*1497 FILLER_19_294
*1498 FILLER_19_301
*1499 FILLER_19_308
*1500 FILLER_19_315
*1501 FILLER_19_322
*1502 FILLER_19_329
*1503 FILLER_19_336
*1504 FILLER_19_343
*1505 FILLER_19_350
*1506 FILLER_19_357
*1507 FILLER_19_364
*1508 FILLER_19_371
*1509 FILLER_19_378
*1510 FILLER_19_385
*1511 FILLER_19_392
*1512 FILLER_19_399
*1513 FILLER_19_406
*1514 FILLER_19_413
*1515 FILLER_19_420
*1516 FILLER_19_427
*1517 FILLER_19_429
*1518 FILLER_20_0
*1519 FILLER_20_7
*1520 FILLER_20_14
*1521 FILLER_20_21
*1522 FILLER_20_28
*1523 FILLER_20_35
*1524 FILLER_20_42
*1525 FILLER_20_49
*1526 FILLER_20_56
*1527 FILLER_20_63
*1528 FILLER_20_70
*1529 FILLER_20_77
*1530 FILLER_20_84
*1531 FILLER_20_91
*1532 FILLER_20_98
*1533 FILLER_20_105
*1534 FILLER_20_112
*1535 FILLER_20_119
*1536 FILLER_20_126
*1537 FILLER_20_133
*1538 FILLER_20_140
*1539 FILLER_20_147
*1540 FILLER_20_154
*1541 FILLER_20_161
*1542 FILLER_20_168
*1543 FILLER_20_175
*1544 FILLER_20_182
*1545 FILLER_20_189
*1546 FILLER_20_196
*1547 FILLER_20_203
*1548 FILLER_20_210
*1549 FILLER_20_217
*1550 FILLER_20_224
*1551 FILLER_20_231
*1552 FILLER_20_238
*1553 FILLER_20_245
*1554 FILLER_20_252
*1555 FILLER_20_259
*1556 FILLER_20_266
*1557 FILLER_20_273
*1558 FILLER_20_280
*1559 FILLER_20_287
*1560 FILLER_20_294
*1561 FILLER_20_301
*1562 FILLER_20_308
*1563 FILLER_20_315
*1564 FILLER_20_322
*1565 FILLER_20_329
*1566 FILLER_20_336
*1567 FILLER_20_343
*1568 FILLER_20_350
*1569 FILLER_20_357
*1570 FILLER_20_364
*1571 FILLER_20_371
*1572 FILLER_20_378
*1573 FILLER_20_385
*1574 FILLER_20_392
*1575 FILLER_20_399
*1576 FILLER_20_406
*1577 FILLER_20_413
*1578 FILLER_20_420
*1579 FILLER_20_427
*1580 FILLER_20_429
*1581 FILLER_21_0
*1582 FILLER_21_7
*1583 FILLER_21_14
*1584 FILLER_21_21
*1585 FILLER_21_28
*1586 FILLER_21_35
*1587 FILLER_21_42
*1588 FILLER_21_49
*1589 FILLER_21_56
*1590 FILLER_21_63
*1591 FILLER_21_70
*1592 FILLER_21_77
*1593 FILLER_21_84
*1594 FILLER_21_91
*1595 FILLER_21_98
*1596 FILLER_21_105
*1597 FILLER_21_112
*1598 FILLER_21_119
*1599 FILLER_21_126
*1600 FILLER_21_133
*1601 FILLER_21_140
*1602 FILLER_21_147
*1603 FILLER_21_154
*1604 FILLER_21_161
*1605 FILLER_21_168
*1606 FILLER_21_175
*1607 FILLER_21_182
*1608 FILLER_21_189
*1609 FILLER_21_196
*1610 FILLER_21_203
*1611 FILLER_21_210
*1612 FILLER_21_217
*1613 FILLER_21_224
*1614 FILLER_21_231
*1615 FILLER_21_238
*1616 FILLER_21_245
*1617 FILLER_21_252
*1618 FILLER_21_259
*1619 FILLER_21_266
*1620 FILLER_21_273
*1621 FILLER_21_280
*1622 FILLER_21_287
*1623 FILLER_21_294
*1624 FILLER_21_301
*1625 FILLER_21_308
*1626 FILLER_21_315
*1627 FILLER_21_322
*1628 FILLER_21_329
*1629 FILLER_21_336
*1630 FILLER_21_343
*1631 FILLER_21_350
*1632 FILLER_21_357
*1633 FILLER_21_364
*1634 FILLER_21_371
*1635 FILLER_21_378
*1636 FILLER_21_385
*1637 FILLER_21_392
*1638 FILLER_21_399
*1639 FILLER_21_406
*1640 FILLER_21_413
*1641 FILLER_21_420
*1642 FILLER_21_427
*1643 FILLER_21_429
*1644 FILLER_22_0
*1645 FILLER_22_7
*1646 FILLER_22_14
*1647 FILLER_22_21
*1648 FILLER_22_28
*1649 FILLER_22_35
*1650 FILLER_22_42
*1651 FILLER_22_49
*1652 FILLER_22_56
*1653 FILLER_22_63
*1654 FILLER_22_70
*1655 FILLER_22_77
*1656 FILLER_22_84
*1657 FILLER_22_91
*1658 FILLER_22_98
*1659 FILLER_22_105
*1660 FILLER_22_112
*1661 FILLER_22_119
*1662 FILLER_22_126
*1663 FILLER_22_133
*1664 FILLER_22_140
*1665 FILLER_22_147
*1666 FILLER_22_154
*1667 FILLER_22_161
*1668 FILLER_22_168
*1669 FILLER_22_175
*1670 FILLER_22_182
*1671 FILLER_22_189
*1672 FILLER_22_196
*1673 FILLER_22_203