*SPEF "ieee 1481-1999"
*DESIGN "tt_um_wokwi_407306064811090945"
*DATE "23:42:34 Sunday November 03, 2024"
*VENDOR "The OpenROAD Project"
*PROGRAM "OpenROAD"
*VERSION "v2.0-16649-g40811f37f"
*DESIGN_FLOW "NAME_SCOPE LOCAL" "PIN_CAP NONE"
*DIVIDER /
*DELIMITER :
*BUS_DELIMITER []
*T_UNIT 1 NS
*C_UNIT 1 PF
*R_UNIT 1 OHM
*L_UNIT 1 HENRY

*NAME_MAP
*1 net31
*2 net29
*3 clk
*4 d0\.q
*5 ddr_input1\.clk2x
*6 ddr_input1\.clkgen_2x\.ne
*7 ddr_input1\.clkgen_2x\.og\.A
*8 net43
*9 net56
*10 net63
*11 net48
*12 net47
*13 net55
*14 net35
*15 ddr_input1\.dff\.q
*16 ddr_input3\.clk2x
*17 ddr_input3\.clkgen_2x\.ne
*18 ddr_input3\.clkgen_2x\.og\.A
*19 net70
*20 net75
*21 net49
*22 net57
*23 net64
*24 net62
*25 net69
*26 net34
*27 net46
*28 net54
*29 ddr_input3\.dff\.q
*30 ddr_input5\.clk2x
*31 ddr_input5\.clkgen_2x\.ne
*32 ddr_input5\.clkgen_2x\.og\.A
*33 net80
*34 net83
*35 net50
*36 net58
*37 net65
*38 net71
*39 net76
*40 net74
*41 net79
*42 net33
*43 net45
*44 net53
*45 net61
*46 net68
*47 ddr_input5\.dff\.q
*48 ddr_input7\.clk2x
*49 ddr_input7\.clkgen_2x\.ne
*50 ddr_input7\.clkgen_2x\.og\.A
*51 net86
*53 net51
*54 net59
*55 net66
*56 net72
*57 net77
*58 net81
*59 net84
*60 net82
*61 net85
*62 net32
*63 net44
*64 net52
*65 net60
*66 net67
*67 net73
*68 net78
*69 ddr_input7\.dff\.q
*70 ena
*71 rst_n
*72 ui_in[0]
*73 ui_in[1]
*74 ui_in[2]
*75 ui_in[3]
*76 ui_in[4]
*77 ui_in[5]
*78 ui_in[6]
*79 ui_in[7]
*80 uio_in[0]
*81 uio_in[1]
*82 uio_in[2]
*83 uio_in[3]
*84 uio_in[4]
*85 uio_in[5]
*86 uio_in[6]
*87 uio_in[7]
*88 uio_oe[0]
*89 uio_oe[1]
*90 uio_oe[2]
*91 uio_oe[3]
*92 uio_oe[4]
*93 uio_oe[5]
*94 uio_oe[6]
*95 uio_oe[7]
*96 uio_out[0]
*97 uio_out[1]
*98 uio_out[2]
*99 uio_out[3]
*100 uio_out[4]
*101 uio_out[5]
*102 uio_out[6]
*103 uio_out[7]
*104 uo_out[0]
*105 uo_out[1]
*106 uo_out[2]
*107 uo_out[3]
*108 uo_out[4]
*109 uo_out[5]
*110 uo_out[6]
*111 uo_out[7]
*114 net1
*115 net2
*116 net3
*117 net4
*118 net5
*119 net6
*120 net7
*121 net8
*122 net9
*123 net10
*124 net11
*125 net12
*126 net13
*127 net14
*128 net15
*129 net16
*130 net17
*131 net18
*132 net19
*133 net20
*134 net21
*135 net22
*136 net23
*137 net24
*138 net25
*139 net26
*140 net27
*141 net28
*142 net30
*143 net36
*144 net37
*145 net38
*146 net39
*147 net40
*148 net41
*149 net42
*150 ddr_input7\.clkgen_2x\.pdp\.dg\.inv\[1\]\.inv_13
*151 ddr_input3\.clkgen_2x\.pdn\.dg\.inv\[2\]\.inv_33
*152 ddr_input1\.clkgen_2x\.pdn\.dg\.inv\[1\]\.inv_25
*153 ddr_input5\.clkgen_2x\.pdn\.dg\.inv\[4\]\.inv_45
*154 ddr_input3\.clkgen_2x\.pdn\.dg\.inv\[3\]\.inv_39
*155 ddr_input7\.clkgen_2x\.pdn\.dg\.inv\[6\]\.inv_53
*156 ddr_input5\.clkgen_2x\.pdn\.dg\.inv\[5\]\.inv_49
*157 FILLER_0_0
*158 ddr_input7\.clkgen_2x\.pdn\.dg\.inv\[7\]\.inv_55
*159 ddr_input7\.clkgen_2x\.pdp\.dg\.inv\[0\]\.inv_1
*160 _34__29
*161 _13_
*162 _14_
*163 _15_
*164 _16_
*165 _17_
*166 _18_
*167 _19_
*168 _20_
*169 _21_
*170 _22_
*171 _23_
*172 _24_
*173 _25_
*174 _26_
*175 _27_
*176 _28_
*177 _29_
*178 _30_
*179 _31_
*180 _32_
*181 _33_
*182 _34_
*183 _35_
*184 _36_
*185 d0\.dfrbp
*186 ddr_input1\.clkgen_2x\.og\.or2
*187 ddr_input1\.clkgen_2x\.pdn\.ag\.and2
*188 ddr_input3\.clkgen_2x\.pdn\.dg\.inv\[0\]\.inv_18
*189 ddr_input3\.clkgen_2x\.pdn\.dg\.inv\[1\]\.inv_26
*190 ddr_input1\.clkgen_2x\.pdp\.ag\.and2
*191 _02__5
*192 ddr_input1\.clkgen_2x\.pdn\.dg\.inv\[0\]\.inv_17
*193 ddr_input1\.dff\.dfrbp
*194 ddr_input3\.clkgen_2x\.og\.or2
*195 ddr_input3\.clkgen_2x\.pdn\.ag\.and2
*196 ddr_input5\.clkgen_2x\.pdn\.dg\.inv\[0\]\.inv_19
*197 ddr_input5\.clkgen_2x\.pdn\.dg\.inv\[1\]\.inv_27
*198 ddr_input5\.clkgen_2x\.pdn\.dg\.inv\[2\]\.inv_34
*199 ddr_input5\.clkgen_2x\.pdn\.dg\.inv\[3\]\.inv_40
*200 ddr_input3\.clkgen_2x\.pdp\.ag\.and2
*201 ddr_input1\.clkgen_2x\.pdp\.dg\.inv\[0\]\.inv_4
*202 ddr_input1\.clkgen_2x\.pdp\.dg\.inv\[1\]\.inv_16
*203 _04__24
*204 _03__32
*205 ddr_input3\.dff\.dfrbp
*206 ddr_input5\.clkgen_2x\.og\.or2
*207 ddr_input5\.clkgen_2x\.pdn\.ag\.and2
*208 ddr_input7\.clkgen_2x\.pdn\.dg\.inv\[0\]\.inv_20
*209 ddr_input7\.clkgen_2x\.pdn\.dg\.inv\[1\]\.inv_28
*210 ddr_input7\.clkgen_2x\.pdn\.dg\.inv\[2\]\.inv_35
*211 ddr_input7\.clkgen_2x\.pdn\.dg\.inv\[3\]\.inv_41
*212 ddr_input7\.clkgen_2x\.pdn\.dg\.inv\[4\]\.inv_46
*213 ddr_input7\.clkgen_2x\.pdn\.dg\.inv\[5\]\.inv_50
*214 ddr_input5\.clkgen_2x\.pdp\.ag\.and2
*215 ddr_input3\.clkgen_2x\.pdp\.dg\.inv\[0\]\.inv_3
*216 ddr_input3\.clkgen_2x\.pdp\.dg\.inv\[1\]\.inv_15
*217 ddr_input3\.clkgen_2x\.pdp\.dg\.inv\[2\]\.inv_23
*218 ddr_input3\.clkgen_2x\.pdp\.dg\.inv\[3\]\.inv_31
*219 _06__38
*220 _05__44
*221 ddr_input5\.dff\.dfrbp
*222 ddr_input7\.clkgen_2x\.og\.or2
*223 ddr_input7\.clkgen_2x\.pdn\.ag\.and2
*224 ddr_input7\.clkgen_2x\.pdp\.dg\.inv\[2\]\.inv_21
*225 ddr_input7\.clkgen_2x\.pdp\.dg\.inv\[3\]\.inv_29
*226 ddr_input7\.clkgen_2x\.pdp\.dg\.inv\[4\]\.inv_36
*227 ddr_input7\.clkgen_2x\.pdp\.dg\.inv\[5\]\.inv_42
*228 ddr_input7\.clkgen_2x\.pdp\.dg\.inv\[6\]\.inv_47
*229 ddr_input7\.clkgen_2x\.pdp\.dg\.inv\[7\]\.inv_51
*230 _10__54
*231 _09__56
*232 ddr_input7\.clkgen_2x\.pdp\.ag\.and2
*233 ddr_input5\.clkgen_2x\.pdp\.dg\.inv\[0\]\.inv_2
*234 ddr_input5\.clkgen_2x\.pdp\.dg\.inv\[1\]\.inv_14
*235 ddr_input5\.clkgen_2x\.pdp\.dg\.inv\[2\]\.inv_22
*236 ddr_input5\.clkgen_2x\.pdp\.dg\.inv\[3\]\.inv_30
*237 ddr_input5\.clkgen_2x\.pdp\.dg\.inv\[4\]\.inv_37
*238 ddr_input5\.clkgen_2x\.pdp\.dg\.inv\[5\]\.inv_43
*239 _08__48
*240 _07__52
*241 ddr_input7\.dff\.dfrbp
*242 input1
*243 input2
*244 input3
*245 input4
*246 input5
*247 input6
*248 output7
*249 output8
*250 output9
*251 output10
*252 output11
*253 output12
*254 _13__13
*255 _14__14
*256 _15__15
*257 _16__16
*258 _17__17
*259 _18__18
*260 _19__19
*261 _20__20
*262 _21__21
*263 _22__22
*264 _23__23
*265 _24__24
*266 _25__25
*267 _26__26
*268 _27__27
*269 _28__28
*270 _35__30
*271 _02__6
*272 _02__7
*273 _02__8
*274 _02__9
*275 _02__10
*276 _02__11
*277 _02__12
*278 FILLER_0_7
*279 FILLER_0_14
*280 FILLER_0_21
*281 FILLER_0_28
*282 FILLER_0_35
*283 FILLER_0_42
*284 FILLER_0_49
*285 FILLER_0_56
*286 FILLER_0_63
*287 FILLER_0_70
*288 FILLER_0_77
*289 FILLER_0_84
*290 FILLER_0_91
*291 FILLER_0_98
*292 FILLER_0_105
*293 FILLER_0_112
*294 FILLER_0_119
*295 FILLER_0_126
*296 FILLER_0_133
*297 FILLER_0_140
*298 FILLER_0_147
*299 FILLER_0_154
*300 FILLER_0_161
*301 FILLER_0_168
*302 FILLER_0_175
*303 FILLER_0_182
*304 FILLER_0_189
*305 FILLER_0_196
*306 FILLER_0_203
*307 FILLER_0_210
*308 FILLER_0_217
*309 FILLER_0_224
*310 FILLER_0_231
*311 FILLER_0_238
*312 FILLER_0_245
*313 FILLER_0_252
*314 FILLER_0_259
*315 FILLER_0_266
*316 FILLER_0_273
*317 FILLER_0_280
*318 FILLER_0_287
*319 FILLER_0_294
*320 FILLER_0_301
*321 FILLER_0_308
*322 FILLER_0_315
*323 FILLER_0_322
*324 FILLER_0_329
*325 FILLER_0_336
*326 FILLER_0_343
*327 FILLER_0_350
*328 FILLER_0_357
*329 FILLER_0_364
*330 FILLER_0_371
*331 FILLER_0_378
*332 FILLER_0_385
*333 FILLER_0_392
*334 FILLER_0_399
*335 FILLER_0_406
*336 FILLER_0_413
*337 FILLER_0_420
*338 FILLER_0_427
*339 FILLER_0_429
*340 FILLER_1_0
*341 FILLER_1_7
*342 FILLER_1_14
*343 FILLER_1_21
*344 FILLER_1_28
*345 FILLER_1_35
*346 FILLER_1_42
*347 FILLER_1_49
*348 FILLER_1_56
*349 FILLER_1_63
*350 FILLER_1_70
*351 FILLER_1_77
*352 FILLER_1_84
*353 FILLER_1_91
*354 FILLER_1_98
*355 FILLER_1_105
*356 FILLER_1_112
*357 FILLER_1_119
*358 FILLER_1_126
*359 FILLER_1_133
*360 FILLER_1_140
*361 FILLER_1_147
*362 FILLER_1_154
*363 FILLER_1_161
*364 FILLER_1_168
*365 FILLER_1_175
*366 FILLER_1_182
*367 FILLER_1_189
*368 FILLER_1_196
*369 FILLER_1_203
*370 FILLER_1_210
*371 FILLER_1_217
*372 FILLER_1_224
*373 FILLER_1_231
*374 FILLER_1_238
*375 FILLER_1_245
*376 FILLER_1_252
*377 FILLER_1_259
*378 FILLER_1_266
*379 FILLER_1_273
*380 FILLER_1_280
*381 FILLER_1_287
*382 FILLER_1_294
*383 FILLER_1_301
*384 FILLER_1_308
*385 FILLER_1_315
*386 FILLER_1_322
*387 FILLER_1_329
*388 FILLER_1_336
*389 FILLER_1_343
*390 FILLER_1_350
*391 FILLER_1_357
*392 FILLER_1_364
*393 FILLER_1_371
*394 FILLER_1_378
*395 FILLER_1_385
*396 FILLER_1_392
*397 FILLER_1_399
*398 FILLER_1_406
*399 FILLER_1_413
*400 FILLER_1_420
*401 FILLER_1_427
*402 FILLER_1_429
*403 FILLER_2_0
*404 FILLER_2_7
*405 FILLER_2_14
*406 FILLER_2_21
*407 FILLER_2_28
*408 FILLER_2_35
*409 FILLER_2_42
*410 FILLER_2_49
*411 FILLER_2_56
*412 FILLER_2_63
*413 FILLER_2_70
*414 FILLER_2_77
*415 FILLER_2_84
*416 FILLER_2_91
*417 FILLER_2_98
*418 FILLER_2_105
*419 FILLER_2_112
*420 FILLER_2_119
*421 FILLER_2_126
*422 FILLER_2_133
*423 FILLER_2_140
*424 FILLER_2_147
*425 FILLER_2_154
*426 FILLER_2_161
*427 FILLER_2_168
*428 FILLER_2_175
*429 FILLER_2_182
*430 FILLER_2_189
*431 FILLER_2_196
*432 FILLER_2_203
*433 FILLER_2_210
*434 FILLER_2_217
*435 FILLER_2_224
*436 FILLER_2_231
*437 FILLER_2_238
*438 FILLER_2_245
*439 FILLER_2_252
*440 FILLER_2_259
*441 FILLER_2_266
*442 FILLER_2_273
*443 FILLER_2_280
*444 FILLER_2_287
*445 FILLER_2_294
*446 FILLER_2_301
*447 FILLER_2_308
*448 FILLER_2_315
*449 FILLER_2_322
*450 FILLER_2_329
*451 FILLER_2_336
*452 FILLER_2_343
*453 FILLER_2_350
*454 FILLER_2_357
*455 FILLER_2_364
*456 FILLER_2_371
*457 FILLER_2_378
*458 FILLER_2_385
*459 FILLER_2_392
*460 FILLER_2_399
*461 FILLER_2_406
*462 FILLER_2_413
*463 FILLER_2_420
*464 FILLER_2_427
*465 FILLER_2_429
*466 FILLER_3_0
*467 FILLER_3_7
*468 FILLER_3_14
*469 FILLER_3_21
*470 FILLER_3_28
*471 FILLER_3_35
*472 FILLER_3_42
*473 FILLER_3_49
*474 FILLER_3_56
*475 FILLER_3_63
*476 FILLER_3_70
*477 FILLER_3_77
*478 FILLER_3_84
*479 FILLER_3_91
*480 FILLER_3_98
*481 FILLER_3_105
*482 FILLER_3_112
*483 FILLER_3_119
*484 FILLER_3_126
*485 FILLER_3_133
*486 FILLER_3_140
*487 FILLER_3_147
*488 FILLER_3_154
*489 FILLER_3_161
*490 FILLER_3_168
*491 FILLER_3_175
*492 FILLER_3_182
*493 FILLER_3_189
*494 FILLER_3_196
*495 FILLER_3_203
*496 FILLER_3_210
*497 FILLER_3_217
*498 FILLER_3_224
*499 FILLER_3_231
*500 FILLER_3_238
*501 FILLER_3_245
*502 FILLER_3_252
*503 FILLER_3_259
*504 FILLER_3_266
*505 FILLER_3_273
*506 FILLER_3_280
*507 FILLER_3_287
*508 FILLER_3_294
*509 FILLER_3_301
*510 FILLER_3_308
*511 FILLER_3_315
*512 FILLER_3_322
*513 FILLER_3_329
*514 FILLER_3_336
*515 FILLER_3_343
*516 FILLER_3_350
*517 FILLER_3_357
*518 FILLER_3_364
*519 FILLER_3_371
*520 FILLER_3_378
*521 FILLER_3_385
*522 FILLER_3_392
*523 FILLER_3_399
*524 FILLER_3_406
*525 FILLER_3_413
*526 FILLER_3_420
*527 FILLER_3_427
*528 FILLER_3_429
*529 FILLER_4_0
*530 FILLER_4_7
*531 FILLER_4_14
*532 FILLER_4_21
*533 FILLER_4_28
*534 FILLER_4_35
*535 FILLER_4_42
*536 FILLER_4_49
*537 FILLER_4_56
*538 FILLER_4_63
*539 FILLER_4_70
*540 FILLER_4_77
*541 FILLER_4_84
*542 FILLER_4_91
*543 FILLER_4_98
*544 FILLER_4_105
*545 FILLER_4_112
*546 FILLER_4_119
*547 FILLER_4_126
*548 FILLER_4_133
*549 FILLER_4_140
*550 FILLER_4_147
*551 FILLER_4_154
*552 FILLER_4_161
*553 FILLER_4_168
*554 FILLER_4_175
*555 FILLER_4_182
*556 FILLER_4_189
*557 FILLER_4_196
*558 FILLER_4_203
*559 FILLER_4_210
*560 FILLER_4_217
*561 FILLER_4_224
*562 FILLER_4_231
*563 FILLER_4_238
*564 FILLER_4_245
*565 FILLER_4_252
*566 FILLER_4_259
*567 FILLER_4_266
*568 FILLER_4_273
*569 FILLER_4_280
*570 FILLER_4_287
*571 FILLER_4_294
*572 FILLER_4_301
*573 FILLER_4_308
*574 FILLER_4_315
*575 FILLER_4_322
*576 FILLER_4_329
*577 FILLER_4_336
*578 FILLER_4_343
*579 FILLER_4_350
*580 FILLER_4_357
*581 FILLER_4_364
*582 FILLER_4_371
*583 FILLER_4_378
*584 FILLER_4_385
*585 FILLER_4_392
*586 FILLER_4_399
*587 FILLER_4_406
*588 FILLER_4_413
*589 FILLER_4_420
*590 FILLER_4_427
*591 FILLER_4_429
*592 FILLER_5_0
*593 FILLER_5_7
*594 FILLER_5_14
*595 FILLER_5_21
*596 FILLER_5_28
*597 FILLER_5_35
*598 FILLER_5_42
*599 FILLER_5_49
*600 FILLER_5_56
*601 FILLER_5_63
*602 FILLER_5_70
*603 FILLER_5_77
*604 FILLER_5_84
*605 FILLER_5_91
*606 FILLER_5_98
*607 FILLER_5_105
*608 FILLER_5_112
*609 FILLER_5_119
*610 FILLER_5_126
*611 FILLER_5_133
*612 FILLER_5_140
*613 FILLER_5_147
*614 FILLER_5_154
*615 FILLER_5_161
*616 FILLER_5_168
*617 FILLER_5_175
*618 FILLER_5_182
*619 FILLER_5_189
*620 FILLER_5_196
*621 FILLER_5_203
*622 FILLER_5_210
*623 FILLER_5_217
*624 FILLER_5_224
*625 FILLER_5_231
*626 FILLER_5_238
*627 FILLER_5_245
*628 FILLER_5_252
*629 FILLER_5_259
*630 FILLER_5_266
*631 FILLER_5_273
*632 FILLER_5_280
*633 FILLER_5_287
*634 FILLER_5_294
*635 FILLER_5_301
*636 FILLER_5_308
*637 FILLER_5_315
*638 FILLER_5_322
*639 FILLER_5_329
*640 FILLER_5_336
*641 FILLER_5_343
*642 FILLER_5_350
*643 FILLER_5_357
*644 FILLER_5_364
*645 FILLER_5_371
*646 FILLER_5_378
*647 FILLER_5_385
*648 FILLER_5_392
*649 FILLER_5_399
*650 FILLER_5_406
*651 FILLER_5_413
*652 FILLER_5_420
*653 FILLER_5_427
*654 FILLER_5_429
*655 FILLER_6_0
*656 FILLER_6_7
*657 FILLER_6_14
*658 FILLER_6_21
*659 FILLER_6_28
*660 FILLER_6_35
*661 FILLER_6_42
*662 FILLER_6_49
*663 FILLER_6_56
*664 FILLER_6_63
*665 FILLER_6_70
*666 FILLER_6_77
*667 FILLER_6_84
*668 FILLER_6_91
*669 FILLER_6_98
*670 FILLER_6_105
*671 FILLER_6_112
*672 FILLER_6_119
*673 FILLER_6_126
*674 FILLER_6_133
*675 FILLER_6_140
*676 FILLER_6_147
*677 FILLER_6_154
*678 FILLER_6_161
*679 FILLER_6_168
*680 FILLER_6_175
*681 FILLER_6_182
*682 FILLER_6_189
*683 FILLER_6_196
*684 FILLER_6_203
*685 FILLER_6_210
*686 FILLER_6_217
*687 FILLER_6_224
*688 FILLER_6_231
*689 FILLER_6_238
*690 FILLER_6_245
*691 FILLER_6_252
*692 FILLER_6_259
*693 FILLER_6_266
*694 FILLER_6_273
*695 FILLER_6_280
*696 FILLER_6_287
*697 FILLER_6_294
*698 FILLER_6_301
*699 FILLER_6_308
*700 FILLER_6_315
*701 FILLER_6_322
*702 FILLER_6_329
*703 FILLER_6_336
*704 FILLER_6_343
*705 FILLER_6_350
*706 FILLER_6_357
*707 FILLER_6_364
*708 FILLER_6_371
*709 FILLER_6_378
*710 FILLER_6_385
*711 FILLER_6_392
*712 FILLER_6_399
*713 FILLER_6_406
*714 FILLER_6_413
*715 FILLER_6_420
*716 FILLER_6_427
*717 FILLER_6_429
*718 FILLER_7_0
*719 FILLER_7_7
*720 FILLER_7_14
*721 FILLER_7_21
*722 FILLER_7_28
*723 FILLER_7_35
*724 FILLER_7_42
*725 FILLER_7_49
*726 FILLER_7_56
*727 FILLER_7_63
*728 FILLER_7_70
*729 FILLER_7_77
*730 FILLER_7_84
*731 FILLER_7_91
*732 FILLER_7_98
*733 FILLER_7_105
*734 FILLER_7_112
*735 FILLER_7_119
*736 FILLER_7_126
*737 FILLER_7_133
*738 FILLER_7_140
*739 FILLER_7_147
*740 FILLER_7_154
*741 FILLER_7_161
*742 FILLER_7_168
*743 FILLER_7_175
*744 FILLER_7_182
*745 FILLER_7_189
*746 FILLER_7_196
*747 FILLER_7_203
*748 FILLER_7_210
*749 FILLER_7_217
*750 FILLER_7_224
*751 FILLER_7_231
*752 FILLER_7_238
*753 FILLER_7_245
*754 FILLER_7_252
*755 FILLER_7_259
*756 FILLER_7_266
*757 FILLER_7_273
*758 FILLER_7_280
*759 FILLER_7_287
*760 FILLER_7_294
*761 FILLER_7_301
*762 FILLER_7_308
*763 FILLER_7_315
*764 FILLER_7_322
*765 FILLER_7_329
*766 FILLER_7_336
*767 FILLER_7_343
*768 FILLER_7_350
*769 FILLER_7_357
*770 FILLER_7_364
*771 FILLER_7_371
*772 FILLER_7_378
*773 FILLER_7_385
*774 FILLER_7_392
*775 FILLER_7_399
*776 FILLER_7_406
*777 FILLER_7_413
*778 FILLER_7_420
*779 FILLER_7_427
*780 FILLER_7_429
*781 FILLER_8_0
*782 FILLER_8_7
*783 FILLER_8_14
*784 FILLER_8_21
*785 FILLER_8_28
*786 FILLER_8_35
*787 FILLER_8_42
*788 FILLER_8_49
*789 FILLER_8_56
*790 FILLER_8_63
*791 FILLER_8_70
*792 FILLER_8_77
*793 FILLER_8_84
*794 FILLER_8_91
*795 FILLER_8_98
*796 FILLER_8_105
*797 FILLER_8_112
*798 FILLER_8_119
*799 FILLER_8_126
*800 FILLER_8_133
*801 FILLER_8_140
*802 FILLER_8_147
*803 FILLER_8_154
*804 FILLER_8_161
*805 FILLER_8_168
*806 FILLER_8_175
*807 FILLER_8_182
*808 FILLER_8_189
*809 FILLER_8_196
*810 FILLER_8_203
*811 FILLER_8_210
*812 FILLER_8_217
*813 FILLER_8_224
*814 FILLER_8_231
*815 FILLER_8_238
*816 FILLER_8_245
*817 FILLER_8_252
*818 FILLER_8_259
*819 FILLER_8_266
*820 FILLER_8_273
*821 FILLER_8_280
*822 FILLER_8_287
*823 FILLER_8_294
*824 FILLER_8_301
*825 FILLER_8_308
*826 FILLER_8_315
*827 FILLER_8_322
*828 FILLER_8_329
*829 FILLER_8_336
*830 FILLER_8_343
*831 FILLER_8_350
*832 FILLER_8_357
*833 FILLER_8_364
*834 FILLER_8_371
*835 FILLER_8_378
*836 FILLER_8_385
*837 FILLER_8_392
*838 FILLER_8_399
*839 FILLER_8_406
*840 FILLER_8_413
*841 FILLER_8_420
*842 FILLER_8_427
*843 FILLER_8_429
*844 FILLER_9_0
*845 FILLER_9_7
*846 FILLER_9_14
*847 FILLER_9_21
*848 FILLER_9_28
*849 FILLER_9_35
*850 FILLER_9_42
*851 FILLER_9_49
*852 FILLER_9_56
*853 FILLER_9_63
*854 FILLER_9_70
*855 FILLER_9_77
*856 FILLER_9_84
*857 FILLER_9_91
*858 FILLER_9_98
*859 FILLER_9_105
*860 FILLER_9_112
*861 FILLER_9_119
*862 FILLER_9_126
*863 FILLER_9_133
*864 FILLER_9_140
*865 FILLER_9_147
*866 FILLER_9_154
*867 FILLER_9_161
*868 FILLER_9_168
*869 FILLER_9_175
*870 FILLER_9_182
*871 FILLER_9_189
*872 FILLER_9_196
*873 FILLER_9_203
*874 FILLER_9_210
*875 FILLER_9_217
*876 FILLER_9_224
*877 FILLER_9_231
*878 FILLER_9_238
*879 FILLER_9_245
*880 FILLER_9_252
*881 FILLER_9_259
*882 FILLER_9_266
*883 FILLER_9_273
*884 FILLER_9_280
*885 FILLER_9_287
*886 FILLER_9_294
*887 FILLER_9_301
*888 FILLER_9_308
*889 FILLER_9_315
*890 FILLER_9_322
*891 FILLER_9_329
*892 FILLER_9_336
*893 FILLER_9_343
*894 FILLER_9_350
*895 FILLER_9_357
*896 FILLER_9_364
*897 FILLER_9_371
*898 FILLER_9_378
*899 FILLER_9_385
*900 FILLER_9_392
*901 FILLER_9_399
*902 FILLER_9_406
*903 FILLER_9_413
*904 FILLER_9_420
*905 FILLER_9_427
*906 FILLER_9_429
*907 FILLER_10_0
*908 FILLER_10_7
*909 FILLER_10_14
*910 FILLER_10_21
*911 FILLER_10_28
*912 FILLER_10_35
*913 FILLER_10_42
*914 FILLER_10_49
*915 FILLER_10_56
*916 FILLER_10_63
*917 FILLER_10_70
*918 FILLER_10_77
*919 FILLER_10_84
*920 FILLER_10_91
*921 FILLER_10_98
*922 FILLER_10_105
*923 FILLER_10_112
*924 FILLER_10_119
*925 FILLER_10_126
*926 FILLER_10_133
*927 FILLER_10_140
*928 FILLER_10_147
*929 FILLER_10_154
*930 FILLER_10_161
*931 FILLER_10_168
*932 FILLER_10_175
*933 FILLER_10_182
*934 FILLER_10_189
*935 FILLER_10_196
*936 FILLER_10_203
*937 FILLER_10_210
*938 FILLER_10_217
*939 FILLER_10_224
*940 FILLER_10_231
*941 FILLER_10_238
*942 FILLER_10_245
*943 FILLER_10_252
*944 FILLER_10_259
*945 FILLER_10_266
*946 FILLER_10_273
*947 FILLER_10_280
*948 FILLER_10_287
*949 FILLER_10_294
*950 FILLER_10_301
*951 FILLER_10_308
*952 FILLER_10_315
*953 FILLER_10_322
*954 FILLER_10_329
*955 FILLER_10_336
*956 FILLER_10_343
*957 FILLER_10_350
*958 FILLER_10_357
*959 FILLER_10_364
*960 FILLER_10_371
*961 FILLER_10_378
*962 FILLER_10_385
*963 FILLER_10_392
*964 FILLER_10_399
*965 FILLER_10_406
*966 FILLER_10_413
*967 FILLER_10_420
*968 FILLER_10_427
*969 FILLER_10_429
*970 FILLER_11_0
*971 FILLER_11_7
*972 FILLER_11_14
*973 FILLER_11_21
*974 FILLER_11_28
*975 FILLER_11_35
*976 FILLER_11_42
*977 FILLER_11_49
*978 FILLER_11_56
*979 FILLER_11_63
*980 FILLER_11_70
*981 FILLER_11_77
*982 FILLER_11_84
*983 FILLER_11_91
*984 FILLER_11_98
*985 FILLER_11_105
*986 FILLER_11_112
*987 FILLER_11_119
*988 FILLER_11_126
*989 FILLER_11_133
*990 FILLER_11_140
*991 FILLER_11_147
*992 FILLER_11_154
*993 FILLER_11_161
*994 FILLER_11_168
*995 FILLER_11_175
*996 FILLER_11_182
*997 FILLER_11_189
*998 FILLER_11_196
*999 FILLER_11_203
*1000 FILLER_11_210
*1001 FILLER_11_217
*1002 FILLER_11_224
*1003 FILLER_11_231
*1004 FILLER_11_238
*1005 FILLER_11_245
*1006 FILLER_11_252
*1007 FILLER_11_259
*1008 FILLER_11_266
*1009 FILLER_11_273
*1010 FILLER_11_280
*1011 FILLER_11_287
*1012 FILLER_11_294
*1013 FILLER_11_301
*1014 FILLER_11_308
*1015 FILLER_11_315
*1016 FILLER_11_322
*1017 FILLER_11_329
*1018 FILLER_11_336
*1019 FILLER_11_343
*1020 FILLER_11_350
*1021 FILLER_11_357
*1022 FILLER_11_364
*1023 FILLER_11_371
*1024 FILLER_11_378
*1025 FILLER_11_385
*1026 FILLER_11_392
*1027 FILLER_11_399
*1028 FILLER_11_406
*1029 FILLER_11_413
*1030 FILLER_11_420
*1031 FILLER_11_427
*1032 FILLER_11_429
*1033 FILLER_12_0
*1034 FILLER_12_7
*1035 FILLER_12_14
*1036 FILLER_12_21
*1037 FILLER_12_28
*1038 FILLER_12_35
*1039 FILLER_12_42
*1040 FILLER_12_49
*1041 FILLER_12_56
*1042 FILLER_12_63
*1043 FILLER_12_70
*1044 FILLER_12_77
*1045 FILLER_12_84
*1046 FILLER_12_91
*1047 FILLER_12_98
*1048 FILLER_12_105
*1049 FILLER_12_112
*1050 FILLER_12_119
*1051 FILLER_12_126
*1052 FILLER_12_133
*1053 FILLER_12_140
*1054 FILLER_12_147
*1055 FILLER_12_154
*1056 FILLER_12_161
*1057 FILLER_12_168
*1058 FILLER_12_175
*1059 FILLER_12_182
*1060 FILLER_12_189
*1061 FILLER_12_196
*1062 FILLER_12_203
*1063 FILLER_12_210
*1064 FILLER_12_217
*1065 FILLER_12_224
*1066 FILLER_12_231
*1067 FILLER_12_238
*1068 FILLER_12_245
*1069 FILLER_12_252
*1070 FILLER_12_259
*1071 FILLER_12_266
*1072 FILLER_12_273
*1073 FILLER_12_280
*1074 FILLER_12_287
*1075 FILLER_12_294
*1076 FILLER_12_301
*1077 FILLER_12_308
*1078 FILLER_12_315
*1079 FILLER_12_322
*1080 FILLER_12_329
*1081 FILLER_12_336
*1082 FILLER_12_343
*1083 FILLER_12_350
*1084 FILLER_12_357
*1085 FILLER_12_364
*1086 FILLER_12_371
*1087 FILLER_12_378
*1088 FILLER_12_385
*1089 FILLER_12_392
*1090 FILLER_12_399
*1091 FILLER_12_406
*1092 FILLER_12_413
*1093 FILLER_12_420
*1094 FILLER_12_427
*1095 FILLER_12_429
*1096 FILLER_13_0
*1097 FILLER_13_7
*1098 FILLER_13_14
*1099 FILLER_13_21
*1100 FILLER_13_28
*1101 FILLER_13_35
*1102 FILLER_13_42
*1103 FILLER_13_49
*1104 FILLER_13_56
*1105 FILLER_13_63
*1106 FILLER_13_70
*1107 FILLER_13_77
*1108 FILLER_13_84
*1109 FILLER_13_91
*1110 FILLER_13_98
*1111 FILLER_13_105
*1112 FILLER_13_112
*1113 FILLER_13_119
*1114 FILLER_13_126
*1115 FILLER_13_133
*1116 FILLER_13_140
*1117 FILLER_13_147
*1118 FILLER_13_154
*1119 FILLER_13_161
*1120 FILLER_13_168
*1121 FILLER_13_175
*1122 FILLER_13_182
*1123 FILLER_13_189
*1124 FILLER_13_196
*1125 FILLER_13_203
*1126 FILLER_13_210
*1127 FILLER_13_217
*1128 FILLER_13_224
*1129 FILLER_13_231
*1130 FILLER_13_238
*1131 FILLER_13_245
*1132 FILLER_13_252
*1133 FILLER_13_259
*1134 FILLER_13_266
*1135 FILLER_13_273
*1136 FILLER_13_280
*1137 FILLER_13_287
*1138 FILLER_13_294
*1139 FILLER_13_301
*1140 FILLER_13_308
*1141 FILLER_13_315
*1142 FILLER_13_322
*1143 FILLER_13_329
*1144 FILLER_13_336
*1145 FILLER_13_343
*1146 FILLER_13_350
*1147 FILLER_13_357
*1148 FILLER_13_364
*1149 FILLER_13_371
*1150 FILLER_13_378
*1151 FILLER_13_385
*1152 FILLER_13_392
*1153 FILLER_13_399
*1154 FILLER_13_406
*1155 FILLER_13_413
*1156 FILLER_13_420
*1157 FILLER_13_427
*1158 FILLER_13_429
*1159 FILLER_14_0
*1160 FILLER_14_7
*1161 FILLER_14_14
*1162 FILLER_14_21
*1163 FILLER_14_28
*1164 FILLER_14_35
*1165 FILLER_14_42
*1166 FILLER_14_49
*1167 FILLER_14_56
*1168 FILLER_14_63
*1169 FILLER_14_70
*1170 FILLER_14_77
*1171 FILLER_14_84
*1172 FILLER_14_91
*1173 FILLER_14_98
*1174 FILLER_14_105
*1175 FILLER_14_112
*1176 FILLER_14_119
*1177 FILLER_14_126
*1178 FILLER_14_133
*1179 FILLER_14_140
*1180 FILLER_14_147
*1181 FILLER_14_154
*1182 FILLER_14_161
*1183 FILLER_14_168
*1184 FILLER_14_175
*1185 FILLER_14_182
*1186 FILLER_14_189
*1187 FILLER_14_196
*1188 FILLER_14_203
*1189 FILLER_14_210
*1190 FILLER_14_217
*1191 FILLER_14_224
*1192 FILLER_14_231
*1193 FILLER_14_238
*1194 FILLER_14_245
*1195 FILLER_14_252
*1196 FILLER_14_259
*1197 FILLER_14_266
*1198 FILLER_14_273
*1199 FILLER_14_280
*1200 FILLER_14_287
*1201 FILLER_14_294
*1202 FILLER_14_301
*1203 FILLER_14_308
*1204 FILLER_14_315
*1205 FILLER_14_322
*1206 FILLER_14_329
*1207 FILLER_14_336
*1208 FILLER_14_343
*1209 FILLER_14_350
*1210 FILLER_14_357
*1211 FILLER_14_364
*1212 FILLER_14_371
*1213 FILLER_14_378
*1214 FILLER_14_385
*1215 FILLER_14_392
*1216 FILLER_14_399
*1217 FILLER_14_406
*1218 FILLER_14_413
*1219 FILLER_14_420
*1220 FILLER_14_427
*1221 FILLER_14_429
*1222 FILLER_15_0
*1223 FILLER_15_7
*1224 FILLER_15_14
*1225 FILLER_15_21
*1226 FILLER_15_28
*1227 FILLER_15_35
*1228 FILLER_15_42
*1229 FILLER_15_49
*1230 FILLER_15_56
*1231 FILLER_15_63
*1232 FILLER_15_70
*1233 FILLER_15_77
*1234 FILLER_15_84
*1235 FILLER_15_91
*1236 FILLER_15_98
*1237 FILLER_15_105
*1238 FILLER_15_112
*1239 FILLER_15_119
*1240 FILLER_15_126
*1241 FILLER_15_133
*1242 FILLER_15_140
*1243 FILLER_15_147
*1244 FILLER_15_154
*1245 FILLER_15_161
*1246 FILLER_15_168
*1247 FILLER_15_175
*1248 FILLER_15_182
*1249 FILLER_15_189
*1250 FILLER_15_196
*1251 FILLER_15_203
*1252 FILLER_15_210
*1253 FILLER_15_217
*1254 FILLER_15_224
*1255 FILLER_15_231
*1256 FILLER_15_238
*1257 FILLER_15_245
*1258 FILLER_15_252
*1259 FILLER_15_259
*1260 FILLER_15_266
*1261 FILLER_15_273
*1262 FILLER_15_280
*1263 FILLER_15_287
*1264 FILLER_15_294
*1265 FILLER_15_301
*1266 FILLER_15_308
*1267 FILLER_15_315
*1268 FILLER_15_322
*1269 FILLER_15_329
*1270 FILLER_15_336
*1271 FILLER_15_343
*1272 FILLER_15_350
*1273 FILLER_15_357
*1274 FILLER_15_364
*1275 FILLER_15_371
*1276 FILLER_15_378
*1277 FILLER_15_385
*1278 FILLER_15_392
*1279 FILLER_15_399
*1280 FILLER_15_406
*1281 FILLER_15_413
*1282 FILLER_15_420
*1283 FILLER_15_427
*1284 FILLER_15_429
*1285 FILLER_16_0
*1286 FILLER_16_7
*1287 FILLER_16_14
*1288 FILLER_16_21
*1289 FILLER_16_28
*1290 FILLER_16_35
*1291 FILLER_16_42
*1292 FILLER_16_49
*1293 FILLER_16_56
*1294 FILLER_16_63
*1295 FILLER_16_70
*1296 FILLER_16_77
*1297 FILLER_16_84
*1298 FILLER_16_91
*1299 FILLER_16_98
*1300 FILLER_16_105
*1301 FILLER_16_112
*1302 FILLER_16_119
*1303 FILLER_16_126
*1304 FILLER_16_133
*1305 FILLER_16_140
*1306 FILLER_16_147
*1307 FILLER_16_154
*1308 FILLER_16_161
*1309 FILLER_16_168
*1310 FILLER_16_175
*1311 FILLER_16_182
*1312 FILLER_16_189
*1313 FILLER_16_196
*1314 FILLER_16_203
*1315 FILLER_16_210
*1316 FILLER_16_217
*1317 FILLER_16_224
*1318 FILLER_16_231
*1319 FILLER_16_238
*1320 FILLER_16_245
*1321 FILLER_16_252
*1322 FILLER_16_259
*1323 FILLER_16_266
*1324 FILLER_16_273
*1325 FILLER_16_280
*1326 FILLER_16_287
*1327 FILLER_16_294
*1328 FILLER_16_301
*1329 FILLER_16_308
*1330 FILLER_16_315
*1331 FILLER_16_322
*1332 FILLER_16_329
*1333 FILLER_16_336
*1334 FILLER_16_343
*1335 FILLER_16_350
*1336 FILLER_16_357
*1337 FILLER_16_364
*1338 FILLER_16_371
*1339 FILLER_16_378
*1340 FILLER_16_385
*1341 FILLER_16_392
*1342 FILLER_16_399
*1343 FILLER_16_406
*1344 FILLER_16_413
*1345 FILLER_16_420
*1346 FILLER_16_427
*1347 FILLER_16_429
*1348 FILLER_17_0
*1349 FILLER_17_7
*1350 FILLER_17_14
*1351 FILLER_17_21
*1352 FILLER_17_28
*1353 FILLER_17_35
*1354 FILLER_17_42
*1355 FILLER_17_49
*1356 FILLER_17_56
*1357 FILLER_17_63
*1358 FILLER_17_70
*1359 FILLER_17_77
*1360 FILLER_17_84
*1361 FILLER_17_91
*1362 FILLER_17_98
*1363 FILLER_17_105
*1364 FILLER_17_112
*1365 FILLER_17_119
*1366 FILLER_17_126
*1367 FILLER_17_133
*1368 FILLER_17_140
*1369 FILLER_17_147
*1370 FILLER_17_154
*1371 FILLER_17_161
*1372 FILLER_17_168
*1373 FILLER_17_175
*1374 FILLER_17_182
*1375 FILLER_17_189
*1376 FILLER_17_196
*1377 FILLER_17_203
*1378 FILLER_17_210
*1379 FILLER_17_217
*1380 FILLER_17_224
*1381 FILLER_17_231
*1382 FILLER_17_238
*1383 FILLER_17_245
*1384 FILLER_17_252
*1385 FILLER_17_259
*1386 FILLER_17_266
*1387 FILLER_17_273
*1388 FILLER_17_280
*1389 FILLER_17_287
*1390 FILLER_17_294
*1391 FILLER_17_301
*1392 FILLER_17_308
*1393 FILLER_17_315
*1394 FILLER_17_322
*1395 FILLER_17_329
*1396 FILLER_17_336
*1397 FILLER_17_343
*1398 FILLER_17_350
*1399 FILLER_17_357
*1400 FILLER_17_364
*1401 FILLER_17_371
*1402 FILLER_17_378
*1403 FILLER_17_385
*1404 FILLER_17_392
*1405 FILLER_17_399
*1406 FILLER_17_406
*1407 FILLER_17_413
*1408 FILLER_17_420
*1409 FILLER_17_427
*1410 FILLER_17_429
*1411 FILLER_18_0
*1412 FILLER_18_7
*1413 FILLER_18_14
*1414 FILLER_18_21
*1415 FILLER_18_28
*1416 FILLER_18_35
*1417 FILLER_18_42
*1418 FILLER_18_49
*1419 FILLER_18_56
*1420 FILLER_18_63
*1421 FILLER_18_70
*1422 FILLER_18_77
*1423 FILLER_18_84
*1424 FILLER_18_91
*1425 FILLER_18_98
*1426 FILLER_18_105
*1427 FILLER_18_112
*1428 FILLER_18_119
*1429 FILLER_18_126
*1430 FILLER_18_133
*1431 FILLER_18_140
*1432 FILLER_18_147
*1433 FILLER_18_154
*1434 FILLER_18_161
*1435 FILLER_18_168
*1436 FILLER_18_175
*1437 FILLER_18_182
*1438 FILLER_18_189
*1439 FILLER_18_196
*1440 FILLER_18_203
*1441 FILLER_18_210
*1442 FILLER_18_217
*1443 FILLER_18_224
*1444 FILLER_18_231
*1445 FILLER_18_238
*1446 FILLER_18_245
*1447 FILLER_18_252
*1448 FILLER_18_259
*1449 FILLER_18_266
*1450 FILLER_18_273
*1451 FILLER_18_280
*1452 FILLER_18_287
*1453 FILLER_18_294
*1454 FILLER_18_301
*1455 FILLER_18_308
*1456 FILLER_18_315
*1457 FILLER_18_322
*1458 FILLER_18_329
*1459 FILLER_18_336
*1460 FILLER_18_343
*1461 FILLER_18_350
*1462 FILLER_18_357
*1463 FILLER_18_364
*1464 FILLER_18_371
*1465 FILLER_18_378
*1466 FILLER_18_385
*1467 FILLER_18_392
*1468 FILLER_18_399
*1469 FILLER_18_406
*1470 FILLER_18_413
*1471 FILLER_18_420
*1472 FILLER_18_427
*1473 FILLER_18_429
*1474 FILLER_19_0
*1475 FILLER_19_7
*1476 FILLER_19_14
*1477 FILLER_19_21
*1478 FILLER_19_28
*1479 FILLER_19_35
*1480 FILLER_19_42
*1481 FILLER_19_49
*1482 FILLER_19_56
*1483 FILLER_19_63
*1484 FILLER_19_70
*1485 FILLER_19_77
*1486 FILLER_19_84
*1487 FILLER_19_91
*1488 FILLER_19_98
*1489 FILLER_19_105
*1490 FILLER_19_112
*1491 FILLER_19_119
*1492 FILLER_19_126
*1493 FILLER_19_133
*1494 FILLER_19_140
*1495 FILLER_19_147
*1496 FILLER_19_154
*1497 FILLER_19_161
*1498 FILLER_19_168
*1499 FILLER_19_175
*1500 FILLER_19_182
*1501 FILLER_19_189
*1502 FILLER_19_196
*1503 FILLER_19_203
*1504 FILLER_19_210
*1505 FILLER_19_217
*1506 FILLER_19_224
*1507 FILLER_19_231
*1508 FILLER_19_238
*1509 FILLER_19_245
*1510 FILLER_19_252
*1511 FILLER_19_259
*1512 FILLER_19_266
*1513 FILLER_19_273
*1514 FILLER_19_280
*1515 FILLER_19_287
*1516 FILLER_19_294
*1517 FILLER_19_301
*1518 FILLER_19_308
*1519 FILLER_19_315
*1520 FILLER_19_322
*1521 FILLER_19_329
*1522 FILLER_19_336
*1523 FILLER_19_343
*1524 FILLER_19_350
*1525 FILLER_19_357
*1526 FILLER_19_364
*1527 FILLER_19_371
*1528 FILLER_19_378
*1529 FILLER_19_385
*1530 FILLER_19_392
*1531 FILLER_19_399
*1532 FILLER_19_406
*1533 FILLER_19_413
*1534 FILLER_19_420
*1535 FILLER_19_427
*1536 FILLER_19_429
*1537 FILLER_20_0
*1538 FILLER_20_7
*1539 FILLER_20_14
*1540 FILLER_20_21
*1541 FILLER_20_28
*1542 FILLER_20_35
*1543 FILLER_20_42
*1544 FILLER_20_49
*1545 FILLER_20_56
*1546 FILLER_20_63
*1547 FILLER_20_70
*1548 FILLER_20_77
*1549 FILLER_20_84
*1550 FILLER_20_91
*1551 FILLER_20_98
*1552 FILLER_20_105
*1553 FILLER_20_112
*1554 FILLER_20_119
*1555 FILLER_20_126
*1556 FILLER_20_133
*1557 FILLER_20_140
*1558 FILLER_20_147
*1559 FILLER_20_154
*1560 FILLER_20_161
*1561 FILLER_20_168
*1562 FILLER_20_175
*1563 FILLER_20_182
*1564 FILLER_20_189
*1565 FILLER_20_196
*1566 FILLER_20_203
*1567 FILLER_20_210
*1568 FILLER_20_217