*SPEF "ieee 1481-1999"
*DESIGN "tt_um_autosel"
*DATE "09:26:39 Monday October 28, 2024"
*VENDOR "The OpenROAD Project"
*PROGRAM "OpenROAD"
*VERSION "v2.0-16649-g40811f37f"
*DESIGN_FLOW "NAME_SCOPE LOCAL" "PIN_CAP NONE"
*DIVIDER /
*DELIMITER :
*BUS_DELIMITER []
*T_UNIT 1 NS
*C_UNIT 1 PF
*R_UNIT 1 OHM
*L_UNIT 1 HENRY

*NAME_MAP
*1 _0000_
*2 _0001_
*3 _0002_
*4 _0003_
*5 _0004_
*6 _0005_
*7 _0006_
*8 _0007_
*9 _0008_
*10 _0009_
*11 _0010_
*12 _0011_
*13 _0012_
*14 _0013_
*15 _0014_
*16 _0015_
*17 _0016_
*18 _0017_
*19 _0018_
*20 _0019_
*21 _0020_
*22 _0021_
*23 _0022_
*24 _0023_
*25 _0024_
*26 _0025_
*27 _0026_
*28 _0027_
*29 _0028_
*30 _0029_
*31 _0030_
*32 _0031_
*33 _0032_
*34 _0033_
*35 _0034_
*36 _0035_
*37 _0036_
*38 _0037_
*39 _0038_
*40 _0039_
*41 _0040_
*42 _0041_
*43 _0042_
*44 _0043_
*45 _0044_
*46 _0045_
*47 _0046_
*48 _0047_
*49 _0048_
*50 _0049_
*51 _0050_
*52 _0051_
*53 _0052_
*54 _0053_
*55 _0054_
*56 _0055_
*57 _0056_
*58 _0057_
*59 _0058_
*60 _0059_
*61 _0060_
*62 _0061_
*63 _0062_
*64 _0063_
*65 _0064_
*66 _0065_
*67 _0066_
*68 _0067_
*69 _0068_
*70 _0069_
*71 _0070_
*72 _0071_
*73 _0072_
*74 _0073_
*75 _0074_
*76 _0075_
*77 _0076_
*78 _0077_
*79 _0078_
*80 _0079_
*81 _0080_
*82 _0081_
*83 _0082_
*84 _0083_
*85 _0084_
*86 _0085_
*87 _0086_
*88 _0087_
*89 _0088_
*90 _0089_
*91 _0090_
*92 _0091_
*93 _0092_
*94 _0093_
*95 _0094_
*96 _0095_
*97 _0096_
*98 _0097_
*99 _0098_
*100 _0099_
*101 _0100_
*102 _0101_
*103 _0102_
*104 _0103_
*105 _0104_
*106 _0105_
*107 _0106_
*108 _0107_
*109 _0108_
*110 _0109_
*111 _0110_
*112 _0111_
*113 _0112_
*114 _0113_
*115 _0114_
*116 _0115_
*117 _0116_
*118 _0117_
*119 _0118_
*120 _0119_
*121 _0120_
*122 _0121_
*123 _0122_
*124 _0123_
*125 _0124_
*126 _0125_
*127 _0126_
*128 _0127_
*129 _0128_
*130 _0129_
*131 _0130_
*132 _0131_
*133 _0132_
*134 _0133_
*135 _0134_
*136 _0135_
*137 _0136_
*138 _0137_
*139 _0138_
*140 _0139_
*141 _0140_
*142 _0141_
*143 _0142_
*144 _0143_
*145 _0144_
*146 _0145_
*147 _0146_
*148 _0147_
*149 _0148_
*150 _0149_
*151 _0150_
*152 _0151_
*153 _0152_
*154 _0153_
*155 _0154_
*156 _0155_
*157 _0156_
*158 _0157_
*159 _0158_
*160 _0159_
*161 _0160_
*162 _0161_
*163 _0162_
*164 _0163_
*165 _0164_
*166 _0165_
*167 _0166_
*168 _0167_
*169 _0168_
*170 _0169_
*171 _0170_
*172 _0171_
*173 _0172_
*174 _0173_
*175 _0174_
*176 _0175_
*177 _0176_
*178 _0177_
*179 _0178_
*180 _0179_
*181 _0180_
*182 _0181_
*183 _0182_
*184 _0183_
*185 _0184_
*186 _0185_
*187 _0186_
*188 _0187_
*189 _0188_
*190 _0189_
*191 _0190_
*192 _0191_
*193 _0192_
*194 _0193_
*195 _0194_
*196 _0195_
*197 _0196_
*198 _0197_
*199 _0198_
*200 _0199_
*201 _0200_
*202 _0201_
*203 _0202_
*204 _0203_
*205 _0204_
*206 _0205_
*207 _0206_
*208 _0207_
*209 _0208_
*210 _0209_
*211 _0210_
*212 _0211_
*213 _0212_
*214 _0213_
*215 _0214_
*216 _0215_
*217 _0216_
*218 _0217_
*219 _0218_
*220 _0219_
*221 _0220_
*222 _0221_
*223 _0222_
*224 _0223_
*225 _0224_
*226 _0225_
*227 _0226_
*228 _0227_
*229 _0228_
*230 _0229_
*231 _0230_
*232 _0231_
*233 _0232_
*234 _0233_
*235 _0234_
*236 _0235_
*237 _0236_
*238 _0237_
*239 _0238_
*240 _0239_
*241 _0240_
*242 _0241_
*243 _0242_
*244 _0243_
*245 _0244_
*246 _0245_
*247 _0246_
*248 _0247_
*249 _0248_
*250 _0249_
*251 _0250_
*252 _0251_
*253 _0252_
*254 _0253_
*255 _0254_
*256 _0255_
*257 _0256_
*258 _0257_
*259 _0258_
*260 _0259_
*261 _0260_
*262 _0261_
*263 _0262_
*264 _0263_
*265 _0264_
*266 _0265_
*267 _0266_
*268 _0267_
*269 _0268_
*270 _0269_
*271 _0270_
*272 _0271_
*273 _0272_
*274 _0273_
*275 _0274_
*276 _0275_
*277 _0276_
*278 _0277_
*279 _0278_
*280 _0279_
*281 _0280_
*282 _0281_
*283 _0282_
*284 _0283_
*285 _0284_
*286 _0285_
*287 _0286_
*288 _0287_
*289 _0288_
*290 _0289_
*291 _0290_
*292 _0291_
*293 _0292_
*294 _0293_
*295 _0294_
*296 _0295_
*297 _0296_
*298 _0297_
*299 _0298_
*300 _0299_
*301 _0300_
*302 _0301_
*303 _0302_
*304 _0303_
*305 _0304_
*306 _0305_
*307 _0306_
*308 _0307_
*309 _0308_
*310 _0309_
*311 _0310_
*312 _0311_
*313 _0312_
*314 _0313_
*315 _0314_
*316 _0315_
*317 _0316_
*318 _0317_
*319 _0318_
*320 _0319_
*321 _0320_
*322 _0321_
*323 _0322_
*324 _0323_
*325 _0324_
*326 _0325_
*327 _0326_
*328 _0327_
*329 _0328_
*330 _0329_
*331 _0330_
*332 _0331_
*333 _0332_
*334 _0333_
*335 _0334_
*336 _0335_
*337 _0336_
*338 _0337_
*339 _0338_
*340 _0339_
*341 _0340_
*342 _0341_
*343 _0342_
*344 _0343_
*345 _0344_
*346 _0345_
*347 _0346_
*348 _0347_
*349 _0348_
*350 _0349_
*351 _0350_
*352 _0351_
*353 _0352_
*354 _0353_
*355 _0354_
*356 _0355_
*357 _0356_
*358 _0357_
*359 _0358_
*360 _0359_
*361 _0360_
*362 _0361_
*363 _0362_
*364 _0363_
*365 _0364_
*366 _0365_
*367 _0366_
*368 _0367_
*369 _0368_
*370 _0369_
*371 _0370_
*372 _0371_
*373 _0372_
*374 _0373_
*375 _0374_
*376 _0375_
*377 _0376_
*378 _0377_
*379 _0378_
*380 _0379_
*381 _0380_
*382 _0381_
*383 _0382_
*384 _0383_
*385 _0384_
*386 _0385_
*387 _0386_
*388 _0387_
*389 _0388_
*390 _0389_
*391 _0390_
*392 _0391_
*393 _0392_
*394 _0393_
*395 _0394_
*396 _0395_
*397 _0396_
*398 _0397_
*399 _0398_
*400 _0399_
*401 _0400_
*402 _0401_
*403 _0402_
*404 _0403_
*405 _0404_
*406 _0405_
*407 _0406_
*408 _0407_
*409 _0408_
*410 _0409_
*411 _0410_
*412 _0411_
*413 _0412_
*414 _0413_
*415 _0414_
*416 _0415_
*417 _0416_
*418 _0417_
*419 _0418_
*420 _0419_
*421 _0420_
*422 _0421_
*423 _0422_
*424 _0423_
*425 _0424_
*426 _0425_
*427 _0426_
*428 _0427_
*429 _0428_
*430 _0429_
*431 _0430_
*432 _0431_
*433 _0432_
*434 _0433_
*435 _0434_
*436 _0435_
*437 _0436_
*438 _0437_
*439 _0438_
*440 _0439_
*441 _0440_
*442 _0441_
*443 _0442_
*444 _0443_
*445 _0444_
*446 _0445_
*447 _0446_
*448 _0447_
*449 _0448_
*450 _0449_
*451 _0450_
*452 _0451_
*453 _0452_
*454 _0453_
*455 _0454_
*456 _0455_
*457 _0456_
*458 _0457_
*459 _0458_
*460 _0459_
*461 _0460_
*462 _0461_
*463 _0462_
*464 _0463_
*465 _0464_
*466 _0465_
*467 _0466_
*468 _0467_
*469 _0468_
*470 _0469_
*471 _0470_
*472 _0471_
*473 _0472_
*474 _0473_
*475 _0474_
*476 _0475_
*477 _0476_
*478 _0477_
*479 _0478_
*480 _0479_
*481 _0480_
*482 _0481_
*483 _0482_
*484 _0483_
*485 _0484_
*486 _0485_
*487 _0486_
*488 _0487_
*489 _0488_
*490 _0489_
*491 _0490_
*492 _0491_
*493 _0492_
*494 _0493_
*495 _0494_
*496 _0495_
*497 _0496_
*498 _0497_
*499 _0498_
*500 _0499_
*501 _0500_
*502 _0501_
*503 _0502_
*504 _0503_
*505 _0504_
*506 _0505_
*507 _0506_
*508 _0507_
*509 _0508_
*510 _0509_
*511 _0510_
*512 _0511_
*513 _0512_
*514 _0513_
*515 _0514_
*516 _0515_
*517 _0516_
*518 _0517_
*519 _0518_
*520 _0519_
*521 _0520_
*522 _0521_
*523 _0522_
*524 _0523_
*525 _0524_
*526 _0525_
*527 _0526_
*528 _0527_
*529 _0528_
*530 _0529_
*531 _0530_
*532 _0531_
*533 _0532_
*534 _0533_
*535 _0534_
*536 _0535_
*537 _0536_
*538 _0537_
*539 _0538_
*540 _0539_
*541 _0540_
*542 _0541_
*543 _0542_
*544 _0543_
*545 _0544_
*546 _0545_
*547 _0546_
*548 _0547_
*549 _0548_
*550 _0549_
*551 _0550_
*552 _0551_
*553 _0552_
*554 _0553_
*555 _0554_
*556 _0555_
*557 _0556_
*558 _0557_
*559 _0558_
*560 _0559_
*561 _0560_
*562 _0561_
*563 _0562_
*564 _0563_
*565 _0564_
*566 _0565_
*567 _0566_
*568 _0567_
*569 _0568_
*570 _0569_
*571 _0570_
*572 _0571_
*573 _0572_
*574 _0573_
*575 _0574_
*576 _0575_
*577 _0576_
*578 _0577_
*579 _0578_
*580 _0579_
*581 _0580_
*582 _0581_
*583 _0582_
*584 _0583_
*585 _0584_
*586 _0585_
*587 _0586_
*588 _0587_
*589 _0588_
*590 _0589_
*591 _0590_
*592 _0591_
*593 _0592_
*594 _0593_
*595 _0594_
*596 _0595_
*597 _0596_
*598 _0597_
*599 _0598_
*600 _0599_
*601 _0600_
*602 _0601_
*603 _0602_
*604 _0603_
*605 _0604_
*606 _0605_
*607 _0606_
*608 _0607_
*609 _0608_
*610 _0609_
*611 _0610_
*612 _0611_
*613 _0612_
*614 _0613_
*615 _0614_
*616 _0615_
*617 _0616_
*618 _0617_
*619 _0618_
*620 _0619_
*621 _0620_
*622 _0621_
*623 _0622_
*624 _0623_
*625 _0624_
*626 _0625_
*627 _0626_
*628 _0627_
*629 _0628_
*630 _0629_
*631 _0630_
*632 _0631_
*633 _0632_
*634 _0633_
*635 _0634_
*636 _0635_
*637 _0636_
*638 _0637_
*639 _0638_
*640 _0639_
*641 _0640_
*642 _0641_
*643 _0642_
*644 _0643_
*645 _0644_
*646 _0645_
*647 _0646_
*648 _0647_
*649 _0648_
*650 _0649_
*651 _0650_
*652 _0651_
*653 _0652_
*654 _0653_
*655 _0654_
*656 _0655_
*657 _0656_
*658 _0657_
*659 _0658_
*660 _0659_
*661 _0660_
*662 _0661_
*663 _0662_
*664 _0663_
*665 _0664_
*666 _0665_
*667 _0666_
*668 _0667_
*669 _0668_
*670 _0669_
*671 _0670_
*672 _0671_
*673 _0672_
*674 _0673_
*675 _0674_
*676 _0675_
*677 _0676_
*678 _0677_
*679 _0678_
*680 _0679_
*681 _0680_
*682 _0681_
*683 _0682_
*684 _0683_
*685 _0684_
*686 _0685_
*687 _0686_
*688 _0687_
*689 _0688_
*690 _0689_
*691 _0690_
*692 _0691_
*693 _0692_
*694 _0693_
*695 _0694_
*696 _0695_
*697 _0696_
*698 _0697_
*699 _0698_
*700 _0699_
*701 _0700_
*702 _0701_
*703 _0702_
*704 _0703_
*705 _0704_
*706 _0705_
*707 _0706_
*708 _0707_
*709 _0708_
*710 _0709_
*711 _0710_
*712 _0711_
*713 _0712_
*714 _0713_
*715 _0714_
*716 _0715_
*717 _0716_
*718 _0717_
*719 _0718_
*720 _0719_
*721 _0720_
*722 _0721_
*723 _0722_
*724 _0723_
*725 _0724_
*726 _0725_
*727 _0726_
*728 _0727_
*729 _0728_
*730 _0729_
*731 _0730_
*732 _0731_
*733 _0732_
*734 _0733_
*735 _0734_
*736 _0735_
*737 _0736_
*738 _0737_
*739 _0738_
*740 _0739_
*741 _0740_
*742 _0741_
*743 _0742_
*744 _0743_
*745 _0744_
*746 _0745_
*747 _0746_
*748 _0747_
*749 _0748_
*750 _0749_
*751 _0750_
*752 _0751_
*753 _0752_
*754 _0753_
*755 _0754_
*756 _0755_
*757 _0756_
*758 _0757_
*759 _0758_
*760 _0759_
*761 _0760_
*762 _0761_
*763 _0762_
*764 _0763_
*765 _0764_
*766 _0765_
*767 _0766_
*768 _0767_
*769 _0768_
*770 _0769_
*771 _0770_
*772 _0771_
*773 _0772_
*774 _0773_
*775 _0774_
*776 _0775_
*777 _0776_
*778 _0777_
*779 _0778_
*780 _0779_
*781 _0780_
*782 _0781_
*783 _0782_
*784 _0783_
*785 _0784_
*786 _0785_
*787 _0786_
*788 _0787_
*789 _0788_
*790 _0789_
*791 _0790_
*792 _0791_
*793 _0792_
*794 _0793_
*795 _0794_
*796 _0795_
*797 _0796_
*798 _0797_
*799 _0798_
*800 _0799_
*801 _0800_
*802 _0801_
*803 _0802_
*804 _0803_
*805 _0804_
*806 _0805_
*807 _0806_
*808 _0807_
*809 _0808_
*810 _0809_
*811 _0810_
*812 _0811_
*813 _0812_
*814 _0813_
*815 _0814_
*816 _0815_
*817 _0816_
*818 _0817_
*819 _0818_
*820 _0819_
*821 _0820_
*822 _0821_
*823 _0822_
*824 _0823_
*825 _0824_
*826 _0825_
*827 _0826_
*828 _0827_
*829 _0828_
*830 _0829_
*831 _0830_
*832 _0831_
*833 _0832_
*834 _0833_
*835 _0834_
*836 _0835_
*837 _0836_
*838 _0837_
*839 _0838_
*840 _0839_
*841 _0840_
*842 _0841_
*843 _0842_
*844 _0843_
*845 _0844_
*846 _0845_
*847 _0846_
*848 _0847_
*849 _0848_
*850 _0849_
*851 _0850_
*852 _0851_
*853 _0852_
*854 _0853_
*855 _0854_
*856 _0855_
*857 _0856_
*858 _0857_
*859 _0858_
*860 _0859_
*861 _0860_
*862 _0861_
*863 _0862_
*864 _0863_
*865 _0864_
*866 _0865_
*867 _0866_
*868 _0867_
*869 _0868_
*870 _0869_
*871 _0870_
*872 _0871_
*873 _0872_
*874 _0873_
*875 _0874_
*876 _0875_
*877 _0876_
*878 _0877_
*879 _0878_
*880 _0879_
*881 _0880_
*882 _0881_
*883 _0882_
*884 _0883_
*885 _0884_
*886 _0885_
*887 _0886_
*888 _0887_
*889 _0888_
*890 _0889_
*891 _0890_
*892 _0891_
*893 _0892_
*894 _0893_
*895 _0894_
*896 _0895_
*897 _0896_
*898 _0897_
*899 _0898_
*900 _0899_
*901 _0900_
*902 _0901_
*903 _0902_
*904 _0903_
*905 _0904_
*906 _0905_
*907 _0906_
*908 _0907_
*909 _0908_
*910 _0909_
*911 _0910_
*912 _0911_
*913 _0912_
*914 _0913_
*915 _0914_
*916 _0915_
*917 _0916_
*918 _0917_
*919 _0918_
*920 _0919_
*921 _0920_
*922 _0921_
*923 _0922_
*924 _0923_
*925 _0924_
*926 _0925_
*927 _0926_
*928 _0927_
*929 _0928_
*930 _0929_
*931 _0930_
*932 _0931_
*933 _0932_
*934 _0933_
*935 _0934_
*936 _0935_
*937 _0936_
*938 _0937_
*939 _0938_
*940 _0939_
*941 _0940_
*942 _0941_
*943 _0942_
*944 _0943_
*945 _0944_
*946 _0945_
*947 _0946_
*948 _0947_
*949 _0948_
*950 _0949_
*951 _0950_
*952 _0951_
*953 _0952_
*954 _0953_
*955 _0954_
*956 _0955_
*957 _0956_
*958 _0957_
*959 _0958_
*960 _0959_
*961 _0960_
*962 _0961_
*963 _0962_
*964 _0963_
*965 _0964_
*966 _0965_
*967 _0966_
*968 _0967_
*969 _0968_
*970 _0969_
*971 _0970_
*972 _0971_
*973 _0972_
*974 _0973_
*975 _0974_
*976 _0975_
*977 _0976_
*978 _0977_
*979 _0978_
*980 _0979_
*981 _0980_
*982 _0981_
*983 _0982_
*984 _0983_
*985 _0984_
*986 _0985_
*987 _0986_
*988 _0987_
*989 _0988_
*990 _0989_
*991 _0990_
*992 _0991_
*993 _0992_
*994 _0993_
*995 _0994_
*996 _0995_
*997 _0996_
*998 _0997_
*999 _0998_
*1000 _0999_
*1001 _1000_
*1002 _1001_
*1003 _1002_
*1004 _1003_
*1005 _1004_
*1006 _1005_
*1007 _1006_
*1008 _1007_
*1009 _1008_
*1010 _1009_
*1011 _1010_
*1012 _1011_
*1013 _1012_
*1014 _1013_
*1015 _1014_
*1016 _1015_
*1017 _1016_
*1018 _1017_
*1019 _1018_
*1020 _1019_
*1021 _1020_
*1022 _1021_
*1023 _1022_
*1024 _1023_
*1025 _1024_
*1026 _1025_
*1027 _1026_
*1028 _1027_
*1029 _1028_
*1030 _1029_
*1031 _1030_
*1032 _1031_
*1033 _1032_
*1034 _1033_
*1035 _1034_
*1036 _1035_
*1037 _1036_
*1038 _1037_
*1039 _1038_
*1040 _1039_
*1041 _1040_
*1042 _1041_
*1043 _1042_
*1044 _1043_
*1045 _1044_
*1046 _1045_
*1047 _1046_
*1048 _1047_
*1049 _1048_
*1050 _1049_
*1051 _1050_
*1052 _1051_
*1053 _1052_
*1054 _1053_
*1055 _1054_
*1056 _1055_
*1057 _1056_
*1058 _1057_
*1059 _1058_
*1060 _1059_
*1061 _1060_
*1062 _1061_
*1063 _1062_
*1064 _1063_
*1065 _1064_
*1066 _1065_
*1067 _1066_
*1068 _1067_
*1069 _1068_
*1070 _1069_
*1071 _1070_
*1072 _1071_
*1073 _1072_
*1074 _1073_
*1075 _1074_
*1076 _1075_
*1077 _1076_
*1078 _1077_
*1079 _1078_
*1080 _1079_
*1081 _1080_
*1082 _1081_
*1083 _1082_
*1084 _1083_
*1085 _1084_
*1086 _1085_
*1087 _1086_
*1088 _1087_
*1089 _1088_
*1090 _1089_
*1091 _1090_
*1092 _1091_
*1093 _1092_
*1094 _1093_
*1095 _1094_
*1096 _1095_
*1097 _1096_
*1098 _1097_
*1099 _1098_
*1100 _1099_
*1101 _1100_
*1102 _1101_
*1103 _1102_
*1104 _1103_
*1105 _1104_
*1106 _1105_
*1107 _1106_
*1108 _1107_
*1109 _1108_
*1110 _1109_
*1111 _1110_
*1112 _1111_
*1113 _1112_
*1114 _1113_
*1115 _1114_
*1116 _1115_
*1117 _1116_
*1118 _1117_
*1119 _1118_
*1120 _1119_
*1121 _1120_
*1122 _1121_
*1123 _1122_
*1124 _1123_
*1125 _1124_
*1126 _1125_
*1127 _1126_
*1128 _1127_
*1129 _1128_
*1130 _1129_
*1131 _1130_
*1132 _1131_
*1133 _1132_
*1134 _1133_
*1135 _1134_
*1136 _1135_
*1137 _1136_
*1138 _1137_
*1139 _1138_
*1140 _1139_
*1141 _1140_
*1142 _1141_
*1143 _1142_
*1144 _1143_
*1145 _1144_
*1146 _1145_
*1147 _1146_
*1148 _1147_
*1149 _1148_
*1150 _1149_
*1151 _1150_
*1152 clknet_0_clk
*1153 net81
*1154 autosel\.addr_counter\[0\]
*1155 autosel\.addr_counter\[1\]
*1156 autosel\.addr_counter\[2\]
*1157 autosel\.addr_counter\[3\]
*1158 autosel\.addr_counter\[4\]
*1159 autosel\.addr_counter\[5\]
*1160 autosel\.addr_counter\[6\]
*1161 autosel\.addr_counter\[7\]
*1162 autosel\.addr_counter\[8\]
*1163 autosel\.addr_counter\[9\]
*1164 autosel\.ctrl_ena
*1165 autosel\.ctrl_sel_inc
*1166 autosel\.ctrl_sel_rst_n
*1167 autosel\.eeprom_busy
*1168 autosel\.eeprom_data\[0\]
*1169 autosel\.eeprom_data\[10\]
*1170 autosel\.eeprom_data\[11\]
*1171 autosel\.eeprom_data\[12\]
*1172 autosel\.eeprom_data\[13\]
*1173 autosel\.eeprom_data\[14\]
*1174 autosel\.eeprom_data\[15\]
*1175 autosel\.eeprom_data\[1\]
*1176 autosel\.eeprom_data\[2\]
*1177 autosel\.eeprom_data\[3\]
*1178 autosel\.eeprom_data\[4\]
*1179 autosel\.eeprom_data\[5\]
*1180 autosel\.eeprom_data\[6\]
*1181 autosel\.eeprom_data\[7\]
*1182 autosel\.eeprom_data\[8\]
*1183 autosel\.eeprom_data\[9\]
*1184 autosel\.i2c\.data_out_hi\[0\]
*1185 autosel\.i2c\.data_out_hi\[1\]
*1186 autosel\.i2c\.data_out_hi\[2\]
*1187 autosel\.i2c\.data_out_hi\[3\]
*1188 autosel\.i2c\.data_out_hi\[4\]
*1189 autosel\.i2c\.data_out_hi\[5\]
*1190 autosel\.i2c\.data_out_hi\[6\]
*1191 autosel\.i2c\.data_out_hi\[7\]
*1192 autosel\.i2c\.i2c\.addr_reg\[4\]
*1193 autosel\.i2c\.i2c\.bit_count_reg\[0\]
*1194 autosel\.i2c\.i2c\.bit_count_reg\[1\]
*1195 autosel\.i2c\.i2c\.bit_count_reg\[2\]
*1196 autosel\.i2c\.i2c\.bit_count_reg\[3\]
*1197 autosel\.i2c\.i2c\.bus_active_reg
*1198 autosel\.i2c\.i2c\.busy_reg
*1199 autosel\.i2c\.i2c\.data_reg\[0\]
*1200 autosel\.i2c\.i2c\.data_reg\[1\]
*1201 autosel\.i2c\.i2c\.data_reg\[2\]
*1202 autosel\.i2c\.i2c\.data_reg\[3\]
*1203 autosel\.i2c\.i2c\.data_reg\[4\]
*1204 autosel\.i2c\.i2c\.data_reg\[5\]
*1205 autosel\.i2c\.i2c\.data_reg\[6\]
*1206 autosel\.i2c\.i2c\.data_reg\[7\]
*1207 autosel\.i2c\.i2c\.delay_reg\[0\]
*1208 autosel\.i2c\.i2c\.delay_reg\[10\]
*1209 autosel\.i2c\.i2c\.delay_reg\[11\]
*1210 autosel\.i2c\.i2c\.delay_reg\[12\]
*1211 autosel\.i2c\.i2c\.delay_reg\[13\]
*1212 autosel\.i2c\.i2c\.delay_reg\[14\]
*1213 autosel\.i2c\.i2c\.delay_reg\[15\]
*1214 autosel\.i2c\.i2c\.delay_reg\[1\]
*1215 autosel\.i2c\.i2c\.delay_reg\[2\]
*1216 autosel\.i2c\.i2c\.delay_reg\[3\]
*1217 autosel\.i2c\.i2c\.delay_reg\[4\]
*1218 autosel\.i2c\.i2c\.delay_reg\[5\]
*1219 autosel\.i2c\.i2c\.delay_reg\[6\]
*1220 autosel\.i2c\.i2c\.delay_reg\[7\]
*1221 autosel\.i2c\.i2c\.delay_reg\[8\]
*1222 autosel\.i2c\.i2c\.delay_reg\[9\]
*1223 autosel\.i2c\.i2c\.delay_scl_reg
*1224 autosel\.i2c\.i2c\.delay_sda_reg
*1225 autosel\.i2c\.i2c\.last_sda_i_reg
*1226 autosel\.i2c\.i2c\.m_axis_data_tdata_reg\[0\]
*1227 autosel\.i2c\.i2c\.m_axis_data_tdata_reg\[1\]
*1228 autosel\.i2c\.i2c\.m_axis_data_tdata_reg\[2\]
*1229 autosel\.i2c\.i2c\.m_axis_data_tdata_reg\[3\]
*1230 autosel\.i2c\.i2c\.m_axis_data_tdata_reg\[4\]
*1231 autosel\.i2c\.i2c\.m_axis_data_tdata_reg\[5\]
*1232 autosel\.i2c\.i2c\.m_axis_data_tdata_reg\[6\]
*1233 autosel\.i2c\.i2c\.m_axis_data_tdata_reg\[7\]
*1234 autosel\.i2c\.i2c\.m_axis_data_tvalid_reg
*1235 autosel\.i2c\.i2c\.missed_ack_reg
*1236 autosel\.i2c\.i2c\.mode_read_reg
*1237 autosel\.i2c\.i2c\.mode_stop_reg
*1238 autosel\.i2c\.i2c\.phy_rx_data_reg
*1239 autosel\.i2c\.i2c\.phy_state_reg\[0\]
*1240 autosel\.i2c\.i2c\.phy_state_reg\[1\]
*1241 autosel\.i2c\.i2c\.phy_state_reg\[2\]
*1242 autosel\.i2c\.i2c\.phy_state_reg\[3\]
*1243 autosel\.i2c\.i2c\.s_axis_cmd_ready_reg
*1244 autosel\.i2c\.i2c\.s_axis_data_tready_reg
*1245 autosel\.i2c\.i2c\.scl_i_reg
*1246 autosel\.i2c\.i2c\.scl_o_reg
*1247 autosel\.i2c\.i2c\.sda_i_reg
*1248 autosel\.i2c\.i2c\.sda_o_reg
*1249 autosel\.i2c\.i2c\.state_reg\[0\]
*1250 autosel\.i2c\.i2c\.state_reg\[1\]
*1251 autosel\.i2c\.i2c\.state_reg\[2\]
*1252 autosel\.i2c\.i2c\.state_reg\[3\]
*1253 autosel\.i2c\.start
*1254 autosel\.i2c\.state\[0\]
*1255 autosel\.i2c\.state\[1\]
*1256 autosel\.i2c\.state\[2\]
*1257 autosel\.scl_oe
*1258 autosel\.sda_oe
*1259 autosel\.state\[1\]
*1260 autosel\.state\[2\]
*1261 clk
*1262 debug_out\.counter\[0\]
*1263 debug_out\.counter\[10\]
*1264 debug_out\.counter\[11\]
*1265 debug_out\.counter\[12\]
*1266 debug_out\.counter\[13\]
*1267 debug_out\.counter\[14\]
*1268 debug_out\.counter\[15\]
*1269 debug_out\.counter\[16\]
*1270 debug_out\.counter\[17\]
*1271 debug_out\.counter\[18\]
*1272 debug_out\.counter\[19\]
*1273 debug_out\.counter\[1\]
*1274 debug_out\.counter\[20\]
*1275 debug_out\.counter\[21\]
*1276 debug_out\.counter\[22\]
*1277 debug_out\.counter\[23\]
*1278 debug_out\.counter\[24\]
*1279 debug_out\.counter\[25\]
*1280 debug_out\.counter\[26\]
*1281 debug_out\.counter\[27\]
*1282 debug_out\.counter\[28\]
*1283 debug_out\.counter\[29\]
*1284 debug_out\.counter\[2\]
*1285 debug_out\.counter\[30\]
*1286 debug_out\.counter\[31\]
*1287 debug_out\.counter\[3\]
*1288 debug_out\.counter\[4\]
*1289 debug_out\.counter\[5\]
*1290 debug_out\.counter\[6\]
*1291 debug_out\.counter\[7\]
*1292 debug_out\.counter\[8\]
*1293 debug_out\.counter\[9\]
*1294 debug_out\.send_index\[0\]
*1295 debug_out\.send_index\[1\]
*1296 debug_out\.send_index\[2\]
*1297 debug_out\.tx_byte\[0\]
*1298 debug_out\.tx_byte\[1\]
*1299 debug_out\.tx_byte\[2\]
*1300 debug_out\.tx_byte\[3\]
*1301 debug_out\.tx_byte\[4\]
*1302 debug_out\.tx_byte\[6\]
*1303 debug_out\.tx_ready
*1304 debug_out\.tx_valid
*1305 debug_out\.uart_tx
*1306 debug_out\.uart_tx_inst\.bit_cnt\[0\]
*1307 debug_out\.uart_tx_inst\.bit_cnt\[1\]
*1308 debug_out\.uart_tx_inst\.bit_cnt\[2\]
*1309 debug_out\.uart_tx_inst\.cycle_cnt\[0\]
*1310 debug_out\.uart_tx_inst\.cycle_cnt\[10\]
*1311 debug_out\.uart_tx_inst\.cycle_cnt\[11\]
*1312 debug_out\.uart_tx_inst\.cycle_cnt\[12\]
*1313 debug_out\.uart_tx_inst\.cycle_cnt\[13\]
*1314 debug_out\.uart_tx_inst\.cycle_cnt\[14\]
*1315 debug_out\.uart_tx_inst\.cycle_cnt\[15\]
*1316 debug_out\.uart_tx_inst\.cycle_cnt\[1\]
*1317 debug_out\.uart_tx_inst\.cycle_cnt\[2\]
*1318 debug_out\.uart_tx_inst\.cycle_cnt\[3\]
*1319 debug_out\.uart_tx_inst\.cycle_cnt\[4\]
*1320 debug_out\.uart_tx_inst\.cycle_cnt\[5\]
*1321 debug_out\.uart_tx_inst\.cycle_cnt\[6\]
*1322 debug_out\.uart_tx_inst\.cycle_cnt\[7\]
*1323 debug_out\.uart_tx_inst\.cycle_cnt\[8\]
*1324 debug_out\.uart_tx_inst\.cycle_cnt\[9\]
*1325 debug_out\.uart_tx_inst\.next_state\[1\]
*1326 debug_out\.uart_tx_inst\.next_state\[2\]
*1327 debug_out\.uart_tx_inst\.state\[0\]
*1328 debug_out\.uart_tx_inst\.state\[1\]
*1329 debug_out\.uart_tx_inst\.state\[2\]
*1330 debug_out\.uart_tx_inst\.tx_data_latch\[0\]
*1331 debug_out\.uart_tx_inst\.tx_data_latch\[1\]
*1332 debug_out\.uart_tx_inst\.tx_data_latch\[2\]
*1333 debug_out\.uart_tx_inst\.tx_data_latch\[3\]
*1334 debug_out\.uart_tx_inst\.tx_data_latch\[4\]
*1335 debug_out\.uart_tx_inst\.tx_data_latch\[6\]
*1336 ena
*1337 rst_n
*1338 ui_in[0]
*1339 ui_in[1]
*1340 ui_in[2]
*1341 ui_in[3]
*1342 ui_in[4]
*1343 ui_in[5]
*1344 ui_in[6]
*1345 ui_in[7]
*1346 uio_in[0]
*1347 uio_in[1]
*1348 uio_in[2]
*1349 uio_in[3]
*1350 uio_in[4]
*1351 uio_in[5]
*1352 uio_in[6]
*1353 uio_in[7]
*1354 uio_oe[0]
*1355 uio_oe[1]
*1356 uio_oe[2]
*1357 uio_oe[3]
*1358 uio_oe[4]
*1359 uio_oe[5]
*1360 uio_oe[6]
*1361 uio_oe[7]
*1362 uio_out[0]
*1363 uio_out[1]
*1364 uio_out[2]
*1365 uio_out[3]
*1366 uio_out[4]
*1367 uio_out[5]
*1368 uio_out[6]
*1369 uio_out[7]
*1370 uo_out[0]
*1371 uo_out[1]
*1372 uo_out[2]
*1373 uo_out[3]
*1374 uo_out[4]
*1375 uo_out[5]
*1376 uo_out[6]
*1377 uo_out[7]
*1380 net1
*1381 net2
*1382 net3
*1383 net4
*1384 net5
*1385 net6
*1386 net7
*1387 net8
*1388 net9
*1389 net10
*1390 net11
*1391 net12
*1392 net13
*1393 net14
*1394 net15
*1395 net16
*1396 net17
*1397 net18
*1398 net19
*1399 net20
*1400 net21
*1401 net22
*1402 net23
*1403 net24
*1404 net25
*1405 net26
*1406 net27
*1407 net28
*1408 net29
*1409 net30
*1410 net31
*1411 net32
*1412 net33
*1413 net34
*1414 net35
*1415 net36
*1416 net37
*1417 net38
*1418 net39
*1419 net40
*1420 net41
*1421 net42
*1422 net43
*1423 net44
*1424 net45
*1425 net46
*1426 net47
*1427 net48
*1428 net49
*1429 net50
*1430 net51
*1431 net52
*1432 net53
*1433 net54
*1434 net55
*1435 net56
*1436 net57
*1437 net58
*1438 net59
*1439 net60
*1440 net61
*1441 net62
*1442 net63
*1443 net64
*1444 net65
*1445 net66
*1446 net67
*1447 net68
*1448 net69
*1449 net70
*1450 net71
*1451 net72
*1452 net73
*1453 net74
*1454 net75
*1455 net76
*1456 net77
*1457 net78
*1458 net79
*1459 net80
*1460 net82
*1461 net83
*1462 net84
*1463 net85
*1464 net86
*1465 net87
*1466 net88
*1467 net89
*1468 net90
*1469 net91
*1470 net92
*1471 net93
*1472 net94
*1473 net95
*1474 net96
*1475 net97
*1476 net98
*1477 net99
*1478 net100
*1479 net101
*1480 net102
*1481 net103
*1482 net104
*1483 net105
*1484 net106
*1485 net107
*1486 net108
*1487 net109
*1488 net110
*1489 net111
*1490 net112
*1491 net113
*1492 net114
*1493 net115
*1494 net116
*1495 net117
*1496 net118
*1497 net119
*1498 net120
*1499 net121
*1500 net122
*1501 net123
*1502 net124
*1503 net125
*1504 net126
*1505 net127
*1506 net128
*1507 net129
*1508 net130
*1509 net131
*1510 net132
*1511 net133
*1512 net134
*1513 net135
*1514 net136
*1515 net137
*1516 net138
*1517 net139
*1518 net140
*1519 net141
*1520 net142
*1521 net143
*1522 net144
*1523 net145
*1524 net146
*1525 net147
*1526 net148
*1527 net149
*1528 net150
*1529 net151
*1530 net152
*1531 net153
*1532 net154
*1533 net155
*1534 net156
*1535 net157
*1536 net158
*1537 net159
*1538 net160
*1539 net161
*1540 net162
*1541 net163
*1542 net164
*1543 net165
*1544 net166
*1545 net167
*1546 net168
*1547 net169
*1548 net170
*1549 net171
*1550 net172
*1551 net173
*1552 net174
*1553 net175
*1554 net176
*1555 net177
*1556 net178
*1557 net179
*1558 net180
*1559 net181
*1560 net182
*1561 net183
*1562 net184
*1563 net185
*1564 net186
*1565 net187
*1566 net188
*1567 net189
*1568 net190
*1569 net191
*1570 net192
*1571 net193
*1572 net194
*1573 net195
*1574 net196
*1575 net197
*1576 net198
*1577 net199
*1578 net200
*1579 net201
*1580 net202
*1581 net203
*1582 net204
*1583 net205
*1584 net206
*1585 net207
*1586 clknet_4_0_0_clk
*1587 clknet_4_1_0_clk
*1588 clknet_4_2_0_clk
*1589 clknet_4_3_0_clk
*1590 clknet_4_4_0_clk
*1591 clknet_4_5_0_clk
*1592 clknet_4_6_0_clk
*1593 clknet_4_7_0_clk
*1594 clknet_4_8_0_clk
*1595 clknet_4_9_0_clk
*1596 clknet_4_10_0_clk
*1597 clknet_4_11_0_clk
*1598 clknet_4_12_0_clk
*1599 clknet_4_13_0_clk
*1600 clknet_4_14_0_clk
*1601 clknet_4_15_0_clk
*1602 clknet_5_0__leaf_clk
*1603 clknet_5_1__leaf_clk
*1604 clknet_5_2__leaf_clk
*1605 clknet_5_3__leaf_clk
*1606 clknet_5_4__leaf_clk
*1607 clknet_5_5__leaf_clk
*1608 clknet_5_6__leaf_clk
*1609 clknet_5_7__leaf_clk
*1610 clknet_5_8__leaf_clk
*1611 clknet_5_9__leaf_clk
*1612 clknet_5_10__leaf_clk
*1613 clknet_5_11__leaf_clk
*1614 clknet_5_12__leaf_clk
*1615 clknet_5_13__leaf_clk
*1616 clknet_5_14__leaf_clk
*1617 clknet_5_15__leaf_clk
*1618 clknet_5_16__leaf_clk
*1619 clknet_5_17__leaf_clk
*1620 clknet_5_18__leaf_clk
*1621 clknet_5_19__leaf_clk
*1622 clknet_5_20__leaf_clk
*1623 clknet_5_21__leaf_clk
*1624 clknet_5_22__leaf_clk
*1625 clknet_5_23__leaf_clk
*1626 clknet_5_24__leaf_clk
*1627 clknet_5_25__leaf_clk
*1628 clknet_5_26__leaf_clk
*1629 clknet_5_27__leaf_clk
*1630 clknet_5_28__leaf_clk
*1631 clknet_5_29__leaf_clk
*1632 clknet_5_30__leaf_clk
*1633 clknet_5_31__leaf_clk
*1634 _1153_
*1635 _1154_
*1636 _1155_
*1637 _1156_
*1638 _1157_
*1639 _1158_
*1640 _1159_
*1641 _1160_
*1642 _1161_
*1643 _1162_
*1644 _1163_
*1645 _1164_
*1646 _1165_
*1647 _1166_
*1648 _1167_
*1649 _1168_
*1650 _1169_
*1651 _1170_
*1652 _1171_
*1653 _1172_
*1654 _1173_
*1655 _1174_
*1656 _1175_
*1657 _1176_
*1658 _1177_
*1659 _1178_
*1660 _1179_
*1661 _1180_
*1662 _1181_
*1663 _1182_
*1664 _1183_
*1665 _1184_
*1666 _1185_
*1667 _1186_
*1668 _1187_
*1669 _1188_
*1670 _1189_
*1671 _1190_
*1672 _1191_
*1673 _1192_
*1674 _1193_
*1675 _1194_
*1676 _1195_
*1677 _1196_
*1678 _1197_
*1679 _1198_
*1680 _1199_
*1681 _1200_
*1682 _1201_
*1683 _1202_
*1684 _1203_
*1685 _1204_
*1686 _1205_
*1687 _1206_
*1688 _1207_
*1689 _1208_
*1690 _1209_
*1691 _1210_
*1692 _1211_
*1693 _1212_
*1694 _1213_
*1695 _1214_
*1696 _1215_
*1697 _1216_
*1698 _1217_
*1699 _1218_
*1700 _1219_
*1701 _1220_
*1702 _1221_
*1703 _1222_
*1704 _1223_
*1705 _1224_
*1706 _1225_
*1707 _1226_
*1708 _1227_
*1709 _1228_
*1710 _1229_
*1711 _1230_
*1712 _1231_
*1713 _1232_
*1714 _1233_
*1715 _1234_
*1716 _1235_
*1717 _1236_
*1718 _1237_
*1719 _1238_
*1720 _1239_
*1721 _1240_
*1722 _1241_
*1723 _1242_
*1724 _1243_
*1725 _1244_
*1726 _1245_
*1727 _1246_
*1728 _1247_
*1729 _1248_
*1730 _1249_
*1731 _1250_
*1732 _1251_
*1733 _1252_
*1734 _1253_
*1735 _1254_
*1736 _1255_
*1737 _1256_
*1738 _1257_
*1739 _1258_
*1740 _1259_
*1741 _1260_
*1742 _1261_
*1743 _1262_
*1744 _1263_
*1745 _1264_
*1746 _1265_
*1747 _1266_
*1748 _1267_
*1749 _1268_
*1750 _1269_
*1751 _1270_
*1752 _1271_
*1753 _1272_
*1754 _1273_
*1755 _1274_
*1756 _1275_
*1757 _1276_
*1758 _1277_
*1759 _1278_
*1760 _1279_
*1761 _1280_
*1762 _1281_
*1763 _1282_
*1764 _1283_
*1765 _1284_
*1766 _1285_
*1767 _1286_
*1768 _1287_
*1769 _1288_
*1770 _1289_
*1771 _1290_
*1772 _1291_
*1773 _1292_
*1774 _1293_
*1775 _1294_
*1776 _1295_
*1777 _1296_
*1778 _1297_
*1779 _1298_
*1780 _1299_
*1781 _1300_
*1782 _1301_
*1783 _1302_
*1784 _1303_
*1785 _1304_
*1786 _1305_
*1787 _1306_
*1788 _1307_
*1789 _1308_
*1790 _1309_
*1791 _1310_
*1792 _1311_
*1793 _1312_
*1794 _1313_
*1795 _1314_
*1796 _1315_
*1797 _1316_
*1798 _1317_
*1799 _1318_
*1800 _1319_
*1801 _1320_
*1802 _1321_
*1803 _1322_
*1804 _1323_
*1805 _1324_
*1806 _1325_
*1807 _1326_
*1808 _1327_
*1809 _1328_
*1810 _1329_
*1811 _1330_
*1812 _1331_
*1813 _1332_
*1814 _1333_
*1815 _1334_
*1816 _1335_
*1817 _1336_
*1818 _1337_
*1819 _1338_
*1820 _1339_
*1821 _1340_
*1822 _1341_
*1823 _1342_
*1824 _1343_
*1825 _1344_
*1826 _1345_
*1827 _1346_
*1828 _1347_
*1829 _1348_
*1830 _1349_
*1831 _1350_
*1832 _1351_
*1833 _1352_
*1834 _1353_
*1835 _1354_
*1836 _1355_
*1837 _1356_
*1838 _1357_
*1839 _1358_
*1840 _1359_
*1841 _1360_
*1842 _1361_
*1843 _1362_
*1844 _1363_
*1845 _1364_
*1846 _1365_
*1847 _1366_
*1848 _1367_
*1849 _1368_
*1850 _1369_
*1851 _1370_
*1852 _1371_
*1853 _1372_
*1854 _1373_
*1855 _1374_
*1856 _1375_
*1857 _1376_
*1858 _1377_
*1859 _1378_
*1860 _1379_
*1861 _1380_
*1862 _1381_
*1863 _1382_
*1864 _1383_
*1865 _1384_
*1866 _1385_
*1867 _1386_
*1868 _1387_
*1869 _1388_
*1870 _1389_
*1871 _1390_
*1872 _1391_
*1873 _1392_
*1874 _1393_
*1875 _1394_
*1876 _1395_
*1877 _1396_
*1878 _1397_
*1879 _1398_
*1880 _1399_
*1881 _1400_
*1882 _1401_
*1883 _1402_
*1884 _1403_
*1885 _1404_
*1886 _1405_
*1887 _1406_
*1888 _1407_
*1889 _1408_
*1890 _1409_
*1891 _1410_
*1892 _1411_
*1893 _1412_
*1894 _1413_
*1895 _1414_
*1896 _1415_
*1897 _1416_
*1898 _1417_
*1899 _1418_
*1900 _1419_
*1901 _1420_
*1902 _1421_
*1903 _1422_
*1904 _1423_
*1905 _1424_
*1906 _1425_
*1907 _1426_
*1908 _1427_
*1909 _1428_
*1910 _1429_
*1911 _1430_
*1912 _1431_
*1913 _1432_
*1914 _1433_
*1915 _1434_
*1916 _1435_
*1917 _1436_
*1918 _1437_
*1919 _1438_
*1920 _1439_
*1921 _1440_
*1922 _1441_
*1923 _1442_
*1924 _1443_
*1925 _1444_
*1926 _1445_
*1927 _1446_
*1928 _1447_
*1929 _1448_
*1930 _1449_
*1931 _1450_
*1932 _1451_
*1933 _1452_
*1934 _1453_
*1935 _1454_
*1936 _1455_
*1937 _1456_
*1938 _1457_
*1939 _1458_
*1940 _1459_
*1941 _1460_
*1942 _1461_
*1943 _1462_
*1944 _1463_
*1945 _1464_
*1946 _1465_
*1947 _1466_
*1948 _1467_
*1949 _1468_
*1950 _1469_
*1951 _1470_
*1952 _1471_
*1953 _1472_
*1954 _1473_
*1955 _1474_
*1956 _1475_
*1957 _1476_
*1958 _1477_
*1959 _1478_
*1960 _1479_
*1961 _1480_
*1962 _1481_
*1963 _1482_
*1964 _1483_
*1965 _1484_
*1966 _1485_
*1967 _1486_
*1968 _1487_
*1969 _1488_
*1970 _1489_
*1971 _1490_
*1972 _1491_
*1973 _1492_
*1974 _1493_
*1975 _1494_
*1976 _1495_
*1977 _1496_
*1978 _1497_
*1979 _1498_
*1980 _1499_
*1981 _1500_