*SPEF "ieee 1481-1999"
*DESIGN "tt_um_multi_bit_puf_wrapper"
*DATE "00:27:09 Monday November 04, 2024"
*VENDOR "The OpenROAD Project"
*PROGRAM "OpenROAD"
*VERSION "v2.0-16649-g40811f37f"
*DESIGN_FLOW "NAME_SCOPE LOCAL" "PIN_CAP NONE"
*DIVIDER /
*DELIMITER :
*BUS_DELIMITER []
*T_UNIT 1 NS
*C_UNIT 1 PF
*R_UNIT 1 OHM
*L_UNIT 1 HENRY

*NAME_MAP
*1 _000_
*2 _001_
*3 _002_
*4 _003_
*5 _004_
*6 _005_
*7 _006_
*8 _007_
*9 _008_
*10 _009_
*11 _010_
*12 _011_
*13 _012_
*14 _013_
*15 _014_
*16 _015_
*17 _016_
*18 _017_
*19 _018_
*20 _019_
*21 _020_
*22 _021_
*23 _022_
*24 _023_
*25 _024_
*26 _025_
*27 _026_
*28 _027_
*29 _028_
*30 _029_
*31 _030_
*32 _031_
*33 _032_
*34 _033_
*35 _034_
*36 _035_
*37 _036_
*38 _037_
*39 _038_
*40 _039_
*41 _040_
*42 _041_
*43 _042_
*44 _043_
*45 _044_
*46 _045_
*47 _046_
*48 _047_
*49 _048_
*50 _049_
*51 _050_
*52 _051_
*53 _052_
*54 _053_
*55 _054_
*56 _055_
*57 _056_
*58 _057_
*59 _058_
*60 _059_
*61 _060_
*62 _061_
*63 _062_
*64 _063_
*65 _064_
*66 _065_
*67 _066_
*68 _067_
*69 _068_
*70 _069_
*71 _070_
*72 _071_
*73 _072_
*74 _073_
*75 _074_
*76 _075_
*77 _076_
*78 _077_
*79 _078_
*80 _079_
*81 _080_
*82 _081_
*83 _082_
*84 _083_
*85 _084_
*86 _085_
*87 _086_
*88 _087_
*89 _088_
*90 _089_
*91 _090_
*92 _091_
*93 _092_
*94 _093_
*95 _094_
*96 _095_
*97 _096_
*98 _097_
*99 _098_
*100 _099_
*101 _100_
*102 _101_
*103 _102_
*104 _103_
*105 _104_
*106 _105_
*107 _106_
*108 _107_
*109 _108_
*110 _109_
*111 _110_
*112 _111_
*113 _112_
*114 _113_
*115 _114_
*116 _115_
*117 _116_
*118 _117_
*119 _118_
*120 _119_
*121 _120_
*122 _121_
*123 _122_
*124 _123_
*125 _124_
*126 _125_
*127 _126_
*128 _127_
*129 _128_
*130 _129_
*131 _130_
*132 _131_
*133 _132_
*134 _133_
*135 _134_
*136 _135_
*137 _136_
*138 _137_
*139 _138_
*140 _139_
*141 _140_
*142 _141_
*143 _142_
*144 _143_
*145 _144_
*146 _145_
*147 _146_
*148 _147_
*149 _148_
*150 _149_
*151 _150_
*152 _151_
*153 _152_
*154 _153_
*155 _154_
*156 _155_
*157 _156_
*158 _157_
*159 _158_
*160 _159_
*161 _160_
*162 _161_
*163 _162_
*164 _163_
*165 _164_
*166 _165_
*167 _166_
*168 _167_
*169 _168_
*170 _169_
*171 _170_
*172 _171_
*173 _172_
*174 _173_
*175 _174_
*176 _175_
*177 _176_
*178 _177_
*179 _178_
*180 _179_
*181 _180_
*182 _181_
*183 _182_
*184 _183_
*185 _184_
*186 _185_
*187 _186_
*188 _187_
*189 _188_
*190 _189_
*191 _190_
*192 _191_
*193 _192_
*194 _193_
*195 _194_
*196 _195_
*197 _196_
*198 _197_
*199 _198_
*200 _199_
*201 _200_
*202 _201_
*203 _202_
*204 _203_
*205 _204_
*206 _205_
*207 _206_
*208 _207_
*209 _208_
*210 _209_
*211 _210_
*212 _211_
*213 _212_
*214 _213_
*215 _214_
*216 _215_
*217 _216_
*218 _217_
*219 _218_
*220 _219_
*221 _220_
*222 _221_
*223 _222_
*224 _223_
*225 _224_
*226 _225_
*227 _226_
*228 _227_
*229 _228_
*230 _229_
*231 _230_
*232 _231_
*233 _232_
*234 _233_
*235 _234_
*236 _235_
*237 _236_
*238 _237_
*239 _238_
*240 _239_
*241 _240_
*242 _241_
*243 _242_
*244 _243_
*245 _244_
*246 _245_
*247 _246_
*248 _247_
*249 _248_
*250 _249_
*251 _250_
*252 _251_
*253 _252_
*254 _253_
*255 _254_
*256 _255_
*257 _256_
*258 _257_
*259 _258_
*260 _259_
*261 _260_
*262 _261_
*263 _262_
*264 _263_
*265 _264_
*266 _265_
*267 _266_
*268 _267_
*269 _268_
*270 _269_
*271 _270_
*272 _271_
*273 _272_
*274 _273_
*275 _274_
*276 _275_
*277 _276_
*278 _277_
*279 _278_
*280 _279_
*281 _280_
*282 _281_
*283 _282_
*284 _283_
*285 _284_
*286 _285_
*287 _286_
*288 _287_
*289 _288_
*290 _289_
*291 _290_
*292 _291_
*293 _292_
*294 _293_
*295 _294_
*296 _295_
*297 _296_
*298 _297_
*299 _298_
*300 _299_
*301 _300_
*302 _301_
*303 _302_
*304 _303_
*305 _304_
*306 _305_
*307 _306_
*308 _307_
*309 _308_
*310 _309_
*311 _310_
*312 _311_
*313 _312_
*314 _313_
*315 _314_
*316 _315_
*317 _316_
*318 _317_
*319 _318_
*320 _319_
*321 _320_
*322 _321_
*323 _322_
*324 _323_
*325 _324_
*326 _325_
*327 _326_
*328 _327_
*329 _328_
*330 _329_
*331 _330_
*332 _331_
*333 _332_
*334 _333_
*335 _334_
*336 _335_
*337 _336_
*338 _337_
*339 _338_
*340 _339_
*341 _340_
*342 _341_
*343 _342_
*344 _343_
*345 _344_
*346 _345_
*347 _346_
*348 _347_
*349 _348_
*350 _349_
*351 _350_
*352 _351_
*353 _352_
*354 _353_
*355 _354_
*356 _355_
*357 _356_
*358 _357_
*359 _358_
*360 _359_
*361 _360_
*362 _361_
*363 _362_
*364 _363_
*365 _364_
*366 clknet_0_clk
*367 net108
*368 clk
*369 ena
*370 puf_instance\.puf_loop\[0\]\.puf_inst\.Q0
*371 puf_instance\.puf_loop\[0\]\.puf_inst\.Q1
*372 puf_instance\.puf_loop\[100\]\.puf_inst\.Q0
*373 puf_instance\.puf_loop\[100\]\.puf_inst\.Q1
*374 puf_instance\.puf_loop\[101\]\.puf_inst\.Q0
*375 puf_instance\.puf_loop\[101\]\.puf_inst\.Q1
*376 puf_instance\.puf_loop\[102\]\.puf_inst\.Q0
*377 puf_instance\.puf_loop\[102\]\.puf_inst\.Q1
*378 puf_instance\.puf_loop\[103\]\.puf_inst\.Q0
*379 puf_instance\.puf_loop\[103\]\.puf_inst\.Q1
*380 puf_instance\.puf_loop\[104\]\.puf_inst\.Q0
*381 puf_instance\.puf_loop\[104\]\.puf_inst\.Q1
*382 puf_instance\.puf_loop\[105\]\.puf_inst\.Q0
*383 puf_instance\.puf_loop\[105\]\.puf_inst\.Q1
*384 puf_instance\.puf_loop\[106\]\.puf_inst\.Q0
*385 puf_instance\.puf_loop\[106\]\.puf_inst\.Q1
*386 puf_instance\.puf_loop\[107\]\.puf_inst\.Q0
*387 puf_instance\.puf_loop\[107\]\.puf_inst\.Q1
*388 puf_instance\.puf_loop\[108\]\.puf_inst\.Q0
*389 puf_instance\.puf_loop\[108\]\.puf_inst\.Q1
*390 puf_instance\.puf_loop\[109\]\.puf_inst\.Q0
*391 puf_instance\.puf_loop\[109\]\.puf_inst\.Q1
*392 puf_instance\.puf_loop\[10\]\.puf_inst\.Q0
*393 puf_instance\.puf_loop\[10\]\.puf_inst\.Q1
*394 puf_instance\.puf_loop\[110\]\.puf_inst\.Q0
*395 puf_instance\.puf_loop\[110\]\.puf_inst\.Q1
*396 puf_instance\.puf_loop\[111\]\.puf_inst\.Q0
*397 puf_instance\.puf_loop\[111\]\.puf_inst\.Q1
*398 puf_instance\.puf_loop\[112\]\.puf_inst\.Q0
*399 puf_instance\.puf_loop\[112\]\.puf_inst\.Q1
*400 puf_instance\.puf_loop\[113\]\.puf_inst\.Q0
*401 puf_instance\.puf_loop\[113\]\.puf_inst\.Q1
*402 puf_instance\.puf_loop\[114\]\.puf_inst\.Q0
*403 puf_instance\.puf_loop\[114\]\.puf_inst\.Q1
*404 puf_instance\.puf_loop\[115\]\.puf_inst\.Q0
*405 puf_instance\.puf_loop\[115\]\.puf_inst\.Q1
*406 puf_instance\.puf_loop\[116\]\.puf_inst\.Q0
*407 puf_instance\.puf_loop\[116\]\.puf_inst\.Q1
*408 puf_instance\.puf_loop\[117\]\.puf_inst\.Q0
*409 puf_instance\.puf_loop\[117\]\.puf_inst\.Q1
*410 puf_instance\.puf_loop\[118\]\.puf_inst\.Q0
*411 puf_instance\.puf_loop\[118\]\.puf_inst\.Q1
*412 puf_instance\.puf_loop\[119\]\.puf_inst\.Q0
*413 puf_instance\.puf_loop\[119\]\.puf_inst\.Q1
*414 puf_instance\.puf_loop\[11\]\.puf_inst\.Q0
*415 puf_instance\.puf_loop\[11\]\.puf_inst\.Q1
*416 puf_instance\.puf_loop\[120\]\.puf_inst\.Q0
*417 puf_instance\.puf_loop\[120\]\.puf_inst\.Q1
*418 puf_instance\.puf_loop\[121\]\.puf_inst\.Q0
*419 puf_instance\.puf_loop\[121\]\.puf_inst\.Q1
*420 puf_instance\.puf_loop\[122\]\.puf_inst\.Q0
*421 puf_instance\.puf_loop\[122\]\.puf_inst\.Q1
*422 puf_instance\.puf_loop\[123\]\.puf_inst\.Q0
*423 puf_instance\.puf_loop\[123\]\.puf_inst\.Q1
*424 puf_instance\.puf_loop\[124\]\.puf_inst\.Q0
*425 puf_instance\.puf_loop\[124\]\.puf_inst\.Q1
*426 puf_instance\.puf_loop\[125\]\.puf_inst\.Q0
*427 puf_instance\.puf_loop\[125\]\.puf_inst\.Q1
*428 puf_instance\.puf_loop\[126\]\.puf_inst\.Q0
*429 puf_instance\.puf_loop\[126\]\.puf_inst\.Q1
*430 puf_instance\.puf_loop\[127\]\.puf_inst\.Q0
*431 puf_instance\.puf_loop\[127\]\.puf_inst\.Q1
*432 puf_instance\.puf_loop\[12\]\.puf_inst\.Q0
*433 puf_instance\.puf_loop\[12\]\.puf_inst\.Q1
*434 puf_instance\.puf_loop\[13\]\.puf_inst\.Q0
*435 puf_instance\.puf_loop\[13\]\.puf_inst\.Q1
*436 puf_instance\.puf_loop\[14\]\.puf_inst\.Q0
*437 puf_instance\.puf_loop\[14\]\.puf_inst\.Q1
*438 puf_instance\.puf_loop\[15\]\.puf_inst\.Q0
*439 puf_instance\.puf_loop\[15\]\.puf_inst\.Q1
*440 puf_instance\.puf_loop\[16\]\.puf_inst\.Q0
*441 puf_instance\.puf_loop\[16\]\.puf_inst\.Q1
*442 puf_instance\.puf_loop\[17\]\.puf_inst\.Q0
*443 puf_instance\.puf_loop\[17\]\.puf_inst\.Q1
*444 puf_instance\.puf_loop\[18\]\.puf_inst\.Q0
*445 puf_instance\.puf_loop\[18\]\.puf_inst\.Q1
*446 puf_instance\.puf_loop\[19\]\.puf_inst\.Q0
*447 puf_instance\.puf_loop\[19\]\.puf_inst\.Q1
*448 puf_instance\.puf_loop\[1\]\.puf_inst\.Q0
*449 puf_instance\.puf_loop\[1\]\.puf_inst\.Q1
*450 puf_instance\.puf_loop\[20\]\.puf_inst\.Q0
*451 puf_instance\.puf_loop\[20\]\.puf_inst\.Q1
*452 puf_instance\.puf_loop\[21\]\.puf_inst\.Q0
*453 puf_instance\.puf_loop\[21\]\.puf_inst\.Q1
*454 puf_instance\.puf_loop\[22\]\.puf_inst\.Q0
*455 puf_instance\.puf_loop\[22\]\.puf_inst\.Q1
*456 puf_instance\.puf_loop\[23\]\.puf_inst\.Q0
*457 puf_instance\.puf_loop\[23\]\.puf_inst\.Q1
*458 puf_instance\.puf_loop\[24\]\.puf_inst\.Q0
*459 puf_instance\.puf_loop\[24\]\.puf_inst\.Q1
*460 puf_instance\.puf_loop\[25\]\.puf_inst\.Q0
*461 puf_instance\.puf_loop\[25\]\.puf_inst\.Q1
*462 puf_instance\.puf_loop\[26\]\.puf_inst\.Q0
*463 puf_instance\.puf_loop\[26\]\.puf_inst\.Q1
*464 puf_instance\.puf_loop\[27\]\.puf_inst\.Q0
*465 puf_instance\.puf_loop\[27\]\.puf_inst\.Q1
*466 puf_instance\.puf_loop\[28\]\.puf_inst\.Q0
*467 puf_instance\.puf_loop\[28\]\.puf_inst\.Q1
*468 puf_instance\.puf_loop\[29\]\.puf_inst\.Q0
*469 puf_instance\.puf_loop\[29\]\.puf_inst\.Q1
*470 puf_instance\.puf_loop\[2\]\.puf_inst\.Q0
*471 puf_instance\.puf_loop\[2\]\.puf_inst\.Q1
*472 puf_instance\.puf_loop\[30\]\.puf_inst\.Q0
*473 puf_instance\.puf_loop\[30\]\.puf_inst\.Q1
*474 puf_instance\.puf_loop\[31\]\.puf_inst\.Q0
*475 puf_instance\.puf_loop\[31\]\.puf_inst\.Q1
*476 puf_instance\.puf_loop\[32\]\.puf_inst\.Q0
*477 puf_instance\.puf_loop\[32\]\.puf_inst\.Q1
*478 puf_instance\.puf_loop\[33\]\.puf_inst\.Q0
*479 puf_instance\.puf_loop\[33\]\.puf_inst\.Q1
*480 puf_instance\.puf_loop\[34\]\.puf_inst\.Q0
*481 puf_instance\.puf_loop\[34\]\.puf_inst\.Q1
*482 puf_instance\.puf_loop\[35\]\.puf_inst\.Q0
*483 puf_instance\.puf_loop\[35\]\.puf_inst\.Q1
*484 puf_instance\.puf_loop\[36\]\.puf_inst\.Q0
*485 puf_instance\.puf_loop\[36\]\.puf_inst\.Q1
*486 puf_instance\.puf_loop\[37\]\.puf_inst\.Q0
*487 puf_instance\.puf_loop\[37\]\.puf_inst\.Q1
*488 puf_instance\.puf_loop\[38\]\.puf_inst\.Q0
*489 puf_instance\.puf_loop\[38\]\.puf_inst\.Q1
*490 puf_instance\.puf_loop\[39\]\.puf_inst\.Q0
*491 puf_instance\.puf_loop\[39\]\.puf_inst\.Q1
*492 puf_instance\.puf_loop\[3\]\.puf_inst\.Q0
*493 puf_instance\.puf_loop\[3\]\.puf_inst\.Q1
*494 puf_instance\.puf_loop\[40\]\.puf_inst\.Q0
*495 puf_instance\.puf_loop\[40\]\.puf_inst\.Q1
*496 puf_instance\.puf_loop\[41\]\.puf_inst\.Q0
*497 puf_instance\.puf_loop\[41\]\.puf_inst\.Q1
*498 puf_instance\.puf_loop\[42\]\.puf_inst\.Q0
*499 puf_instance\.puf_loop\[42\]\.puf_inst\.Q1
*500 puf_instance\.puf_loop\[43\]\.puf_inst\.Q0
*501 puf_instance\.puf_loop\[43\]\.puf_inst\.Q1
*502 puf_instance\.puf_loop\[44\]\.puf_inst\.Q0
*503 puf_instance\.puf_loop\[44\]\.puf_inst\.Q1
*504 puf_instance\.puf_loop\[45\]\.puf_inst\.Q0
*505 puf_instance\.puf_loop\[45\]\.puf_inst\.Q1
*506 puf_instance\.puf_loop\[46\]\.puf_inst\.Q0
*507 puf_instance\.puf_loop\[46\]\.puf_inst\.Q1
*508 puf_instance\.puf_loop\[47\]\.puf_inst\.Q0
*509 puf_instance\.puf_loop\[47\]\.puf_inst\.Q1
*510 puf_instance\.puf_loop\[48\]\.puf_inst\.Q0
*511 puf_instance\.puf_loop\[48\]\.puf_inst\.Q1
*512 puf_instance\.puf_loop\[49\]\.puf_inst\.Q0
*513 puf_instance\.puf_loop\[49\]\.puf_inst\.Q1
*514 puf_instance\.puf_loop\[4\]\.puf_inst\.Q0
*515 puf_instance\.puf_loop\[4\]\.puf_inst\.Q1
*516 puf_instance\.puf_loop\[50\]\.puf_inst\.Q0
*517 puf_instance\.puf_loop\[50\]\.puf_inst\.Q1
*518 puf_instance\.puf_loop\[51\]\.puf_inst\.Q0
*519 puf_instance\.puf_loop\[51\]\.puf_inst\.Q1
*520 puf_instance\.puf_loop\[52\]\.puf_inst\.Q0
*521 puf_instance\.puf_loop\[52\]\.puf_inst\.Q1
*522 puf_instance\.puf_loop\[53\]\.puf_inst\.Q0
*523 puf_instance\.puf_loop\[53\]\.puf_inst\.Q1
*524 puf_instance\.puf_loop\[54\]\.puf_inst\.Q0
*525 puf_instance\.puf_loop\[54\]\.puf_inst\.Q1
*526 puf_instance\.puf_loop\[55\]\.puf_inst\.Q0
*527 puf_instance\.puf_loop\[55\]\.puf_inst\.Q1
*528 puf_instance\.puf_loop\[56\]\.puf_inst\.Q0
*529 puf_instance\.puf_loop\[56\]\.puf_inst\.Q1
*530 puf_instance\.puf_loop\[57\]\.puf_inst\.Q0
*531 puf_instance\.puf_loop\[57\]\.puf_inst\.Q1
*532 puf_instance\.puf_loop\[58\]\.puf_inst\.Q0
*533 puf_instance\.puf_loop\[58\]\.puf_inst\.Q1
*534 puf_instance\.puf_loop\[59\]\.puf_inst\.Q0
*535 puf_instance\.puf_loop\[59\]\.puf_inst\.Q1
*536 puf_instance\.puf_loop\[5\]\.puf_inst\.Q0
*537 puf_instance\.puf_loop\[5\]\.puf_inst\.Q1
*538 puf_instance\.puf_loop\[60\]\.puf_inst\.Q0
*539 puf_instance\.puf_loop\[60\]\.puf_inst\.Q1
*540 puf_instance\.puf_loop\[61\]\.puf_inst\.Q0
*541 puf_instance\.puf_loop\[61\]\.puf_inst\.Q1
*542 puf_instance\.puf_loop\[62\]\.puf_inst\.Q0
*543 puf_instance\.puf_loop\[62\]\.puf_inst\.Q1
*544 puf_instance\.puf_loop\[63\]\.puf_inst\.Q0
*545 puf_instance\.puf_loop\[63\]\.puf_inst\.Q1
*546 puf_instance\.puf_loop\[64\]\.puf_inst\.Q0
*547 puf_instance\.puf_loop\[64\]\.puf_inst\.Q1
*548 puf_instance\.puf_loop\[65\]\.puf_inst\.Q0
*549 puf_instance\.puf_loop\[65\]\.puf_inst\.Q1
*550 puf_instance\.puf_loop\[66\]\.puf_inst\.Q0
*551 puf_instance\.puf_loop\[66\]\.puf_inst\.Q1
*552 puf_instance\.puf_loop\[67\]\.puf_inst\.Q0
*553 puf_instance\.puf_loop\[67\]\.puf_inst\.Q1
*554 puf_instance\.puf_loop\[68\]\.puf_inst\.Q0
*555 puf_instance\.puf_loop\[68\]\.puf_inst\.Q1
*556 puf_instance\.puf_loop\[69\]\.puf_inst\.Q0
*557 puf_instance\.puf_loop\[69\]\.puf_inst\.Q1
*558 puf_instance\.puf_loop\[6\]\.puf_inst\.Q0
*559 puf_instance\.puf_loop\[6\]\.puf_inst\.Q1
*560 puf_instance\.puf_loop\[70\]\.puf_inst\.Q0
*561 puf_instance\.puf_loop\[70\]\.puf_inst\.Q1
*562 puf_instance\.puf_loop\[71\]\.puf_inst\.Q0
*563 puf_instance\.puf_loop\[71\]\.puf_inst\.Q1
*564 puf_instance\.puf_loop\[72\]\.puf_inst\.Q0
*565 puf_instance\.puf_loop\[72\]\.puf_inst\.Q1
*566 puf_instance\.puf_loop\[73\]\.puf_inst\.Q0
*567 puf_instance\.puf_loop\[73\]\.puf_inst\.Q1
*568 puf_instance\.puf_loop\[74\]\.puf_inst\.Q0
*569 puf_instance\.puf_loop\[74\]\.puf_inst\.Q1
*570 puf_instance\.puf_loop\[75\]\.puf_inst\.Q0
*571 puf_instance\.puf_loop\[75\]\.puf_inst\.Q1
*572 puf_instance\.puf_loop\[76\]\.puf_inst\.Q0
*573 puf_instance\.puf_loop\[76\]\.puf_inst\.Q1
*574 puf_instance\.puf_loop\[77\]\.puf_inst\.Q0
*575 puf_instance\.puf_loop\[77\]\.puf_inst\.Q1
*576 puf_instance\.puf_loop\[78\]\.puf_inst\.Q0
*577 puf_instance\.puf_loop\[78\]\.puf_inst\.Q1
*578 puf_instance\.puf_loop\[79\]\.puf_inst\.Q0
*579 puf_instance\.puf_loop\[79\]\.puf_inst\.Q1
*580 puf_instance\.puf_loop\[7\]\.puf_inst\.Q0
*581 puf_instance\.puf_loop\[7\]\.puf_inst\.Q1
*582 puf_instance\.puf_loop\[80\]\.puf_inst\.Q0
*583 puf_instance\.puf_loop\[80\]\.puf_inst\.Q1
*584 puf_instance\.puf_loop\[81\]\.puf_inst\.Q0
*585 puf_instance\.puf_loop\[81\]\.puf_inst\.Q1
*586 puf_instance\.puf_loop\[82\]\.puf_inst\.Q0
*587 puf_instance\.puf_loop\[82\]\.puf_inst\.Q1
*588 puf_instance\.puf_loop\[83\]\.puf_inst\.Q0
*589 puf_instance\.puf_loop\[83\]\.puf_inst\.Q1
*590 puf_instance\.puf_loop\[84\]\.puf_inst\.Q0
*591 puf_instance\.puf_loop\[84\]\.puf_inst\.Q1
*592 puf_instance\.puf_loop\[85\]\.puf_inst\.Q0
*593 puf_instance\.puf_loop\[85\]\.puf_inst\.Q1
*594 puf_instance\.puf_loop\[86\]\.puf_inst\.Q0
*595 puf_instance\.puf_loop\[86\]\.puf_inst\.Q1
*596 puf_instance\.puf_loop\[87\]\.puf_inst\.Q0
*597 puf_instance\.puf_loop\[87\]\.puf_inst\.Q1
*598 puf_instance\.puf_loop\[88\]\.puf_inst\.Q0
*599 puf_instance\.puf_loop\[88\]\.puf_inst\.Q1
*600 puf_instance\.puf_loop\[89\]\.puf_inst\.Q0
*601 puf_instance\.puf_loop\[89\]\.puf_inst\.Q1
*602 puf_instance\.puf_loop\[8\]\.puf_inst\.Q0
*603 puf_instance\.puf_loop\[8\]\.puf_inst\.Q1
*604 puf_instance\.puf_loop\[90\]\.puf_inst\.Q0
*605 puf_instance\.puf_loop\[90\]\.puf_inst\.Q1
*606 puf_instance\.puf_loop\[91\]\.puf_inst\.Q0
*607 puf_instance\.puf_loop\[91\]\.puf_inst\.Q1
*608 puf_instance\.puf_loop\[92\]\.puf_inst\.Q0
*609 puf_instance\.puf_loop\[92\]\.puf_inst\.Q1
*610 puf_instance\.puf_loop\[93\]\.puf_inst\.Q0
*611 puf_instance\.puf_loop\[93\]\.puf_inst\.Q1
*612 puf_instance\.puf_loop\[94\]\.puf_inst\.Q0
*613 puf_instance\.puf_loop\[94\]\.puf_inst\.Q1
*614 puf_instance\.puf_loop\[95\]\.puf_inst\.Q0
*615 puf_instance\.puf_loop\[95\]\.puf_inst\.Q1
*616 puf_instance\.puf_loop\[96\]\.puf_inst\.Q0
*617 puf_instance\.puf_loop\[96\]\.puf_inst\.Q1
*618 puf_instance\.puf_loop\[97\]\.puf_inst\.Q0
*619 puf_instance\.puf_loop\[97\]\.puf_inst\.Q1
*620 puf_instance\.puf_loop\[98\]\.puf_inst\.Q0
*621 puf_instance\.puf_loop\[98\]\.puf_inst\.Q1
*622 puf_instance\.puf_loop\[99\]\.puf_inst\.Q0
*623 puf_instance\.puf_loop\[99\]\.puf_inst\.Q1
*624 puf_instance\.puf_loop\[9\]\.puf_inst\.Q0
*625 puf_instance\.puf_loop\[9\]\.puf_inst\.Q1
*626 rst_n
*627 ui_in[0]
*628 ui_in[1]
*629 ui_in[2]
*630 ui_in[3]
*631 ui_in[4]
*632 ui_in[5]
*633 ui_in[6]
*634 ui_in[7]
*635 uio_in[0]
*636 uio_in[1]
*637 uio_in[2]
*638 uio_in[3]
*639 uio_in[4]
*640 uio_in[5]
*641 uio_in[6]
*642 uio_in[7]
*643 uio_oe[0]
*644 uio_oe[1]
*645 uio_oe[2]
*646 uio_oe[3]
*647 uio_oe[4]
*648 uio_oe[5]
*649 uio_oe[6]
*650 uio_oe[7]
*651 uio_out[0]
*652 uio_out[1]
*653 uio_out[2]
*654 uio_out[3]
*655 uio_out[4]
*656 uio_out[5]
*657 uio_out[6]
*658 uio_out[7]
*659 uo_out[0]
*660 uo_out[1]
*661 uo_out[2]
*662 uo_out[3]
*663 uo_out[4]
*664 uo_out[5]
*665 uo_out[6]
*666 uo_out[7]
*669 net1
*670 net2
*671 net3
*672 net4
*673 net5
*674 net6
*675 net7
*676 net8
*677 net9
*678 net10
*679 net11
*680 net12
*681 net13
*682 net14
*683 net15
*684 net16
*685 net17
*686 net18
*687 net19
*688 net20
*689 net21
*690 net22
*691 net23
*692 net24
*693 net25
*694 net26
*695 net27
*696 net28
*697 net29
*698 net30
*699 net31
*700 net32
*701 net33
*702 net34
*703 net35
*704 net36
*705 net37
*706 net38
*707 net39
*708 net40
*709 net41
*710 net42
*711 net43
*712 net44
*713 net45
*714 net46
*715 net47
*716 net48
*717 net49
*718 net50
*719 net51
*720 net52
*721 net53
*722 net54
*723 net55
*724 net56
*725 net57
*726 net58
*727 net59
*728 net60
*729 net61
*730 net62
*731 net63
*732 net64
*733 net65
*734 net66
*735 net67
*736 net68
*737 net69
*738 net70
*739 net71
*740 net72
*741 net73
*742 net74
*743 net75
*744 net76
*745 net77
*746 net78
*747 net79
*748 net80
*749 net81
*750 net82
*751 net83
*752 net84
*753 net85
*754 net86
*755 net87
*756 net88
*757 net89
*758 net90
*759 net91
*760 net92
*761 net93
*762 net94
*763 net95
*764 net96
*765 net97
*766 net98
*767 net99
*768 net100
*769 net101
*770 net102
*771 net103
*772 net104
*773 net105
*774 net106
*775 net107
*776 net109
*777 net110
*778 net111
*779 net112
*780 net113
*781 net114
*782 net115
*783 net116
*784 net117
*785 net118
*786 net119
*787 net120
*788 net121
*789 net122
*790 net123
*791 net124
*792 net125
*793 net126
*794 net127
*795 net128
*796 net129
*797 net130
*798 net131
*799 net132
*800 net133
*801 net134
*802 net135
*803 net136
*804 net137
*805 net138
*806 net139
*807 net140
*808 net141
*809 net142
*810 net143
*811 net144
*812 net145
*813 net146
*814 net147
*815 net148
*816 net149
*817 net150
*818 net151
*819 net152
*820 net153
*821 net154
*822 net155
*823 net156
*824 net157
*825 net158
*826 net159
*827 net160
*828 net161
*829 net162
*830 net163
*831 net164
*832 net165
*833 net166
*834 net167
*835 net168
*836 net169
*837 net170
*838 net171
*839 net172
*840 net173
*841 net174
*842 net175
*843 net176
*844 net177
*845 net178
*846 net179
*847 net180
*848 net181
*849 net182
*850 net183
*851 net184
*852 net185
*853 net186
*854 net187
*855 net188
*856 net189
*857 net190
*858 net191
*859 net192
*860 net193
*861 net194
*862 net195
*863 net196
*864 net197
*865 net198
*866 net199
*867 net200
*868 net201
*869 net202
*870 net203
*871 net204
*872 net205
*873 net206
*874 net207
*875 net208
*876 net209
*877 net210
*878 net211
*879 net212
*880 net213
*881 net214
*882 net215
*883 net216
*884 net217
*885 net218
*886 net219
*887 net220
*888 net221
*889 net222
*890 net223
*891 net224
*892 net225
*893 net226
*894 net227
*895 net228
*896 net229
*897 net230
*898 net231
*899 net232
*900 net233
*901 net234
*902 net235
*903 net236
*904 net237
*905 net238
*906 net239
*907 net240
*908 net241
*909 net242
*910 net243
*911 net244
*912 net245
*913 net246
*914 net247
*915 net248
*916 net249
*917 net250
*918 net251
*919 net252
*920 net253
*921 net254
*922 net255
*923 net256
*924 net257
*925 net258
*926 net259
*927 net260
*928 net261
*929 net262
*930 net263
*931 net264
*932 net265
*933 net266
*934 net267
*935 net268
*936 net269
*937 net270
*938 net271
*939 net272
*940 net273
*941 net274
*942 net275
*943 net276
*944 net277
*945 net278
*946 net279
*947 net280
*948 net281
*949 net282
*950 net283
*951 net284
*952 net285
*953 net286
*954 net287
*955 net288
*956 net289
*957 net290
*958 net291
*959 net292
*960 net293
*961 net294
*962 net295
*963 net296
*964 net297
*965 net298
*966 net299
*967 net300
*968 net301
*969 net302
*970 net303
*971 net304
*972 net305
*973 net306
*974 net307
*975 net308
*976 net309
*977 net310
*978 net311
*979 net312
*980 net313
*981 net314
*982 net315
*983 net316
*984 net317
*985 net318
*986 net319
*987 net320
*988 net321
*989 net322
*990 net323
*991 net324
*992 net325
*993 net326
*994 net327
*995 net328
*996 net329
*997 net330
*998 net331
*999 net332
*1000 net333
*1001 net334
*1002 net335
*1003 net336
*1004 net337
*1005 net338
*1006 net339
*1007 net340
*1008 net341
*1009 net342
*1010 net343
*1011 net344
*1012 net345
*1013 net346
*1014 net347
*1015 net348
*1016 net349
*1017 net350
*1018 net351
*1019 net352
*1020 net353
*1021 net354
*1022 net355
*1023 net356
*1024 net357
*1025 net358
*1026 net359
*1027 net360
*1028 net361
*1029 net362
*1030 net363
*1031 clknet_1_0__leaf_clk
*1032 clknet_1_1__leaf_clk
*1033 _367_
*1034 _368_
*1035 _369_
*1036 _370_
*1037 _371_
*1038 _372_
*1039 _373_
*1040 _374_
*1041 _375_
*1042 _376_
*1043 _377_
*1044 _378_
*1045 _379_
*1046 _380_
*1047 _381_
*1048 _382_
*1049 _383_
*1050 _384_
*1051 _385_
*1052 _386_
*1053 _387_
*1054 _388_
*1055 _389_
*1056 _390_
*1057 _391_
*1058 _392_
*1059 _393_
*1060 _394_
*1061 _395_
*1062 _396_
*1063 _397_
*1064 _398_
*1065 _399_
*1066 _400_
*1067 _401_
*1068 _402_
*1069 _403_
*1070 _404_
*1071 _405_
*1072 _406_
*1073 _407_
*1074 _408_
*1075 _409_
*1076 _410_
*1077 _411_
*1078 _412_
*1079 _413_
*1080 _414_
*1081 _415_
*1082 _416_
*1083 _417_
*1084 _418_
*1085 _419_
*1086 _420_
*1087 _421_
*1088 _422_
*1089 _423_
*1090 _424_
*1091 _425_
*1092 _426_
*1093 _427_
*1094 _428_
*1095 _429_
*1096 _430_
*1097 _431_
*1098 _432_
*1099 _433_
*1100 _434_
*1101 _435_
*1102 _436_
*1103 _437_
*1104 _438_
*1105 _439_
*1106 _440_
*1107 _441_
*1108 _442_
*1109 _443_
*1110 _444_
*1111 _445_
*1112 _446_
*1113 _447_
*1114 _448_
*1115 _449_
*1116 _450_
*1117 _451_
*1118 _452_
*1119 _453_
*1120 _454_
*1121 _455_
*1122 _456_
*1123 _457_
*1124 _458_
*1125 _459_
*1126 _460_
*1127 _461_
*1128 _462_
*1129 _463_
*1130 _464_
*1131 _465_
*1132 _466_
*1133 _467_
*1134 _468_
*1135 _469_
*1136 _470_
*1137 _471_
*1138 _472_
*1139 _473_
*1140 _474_
*1141 _475_
*1142 _476_
*1143 _477_
*1144 _478_
*1145 _479_
*1146 _480_
*1147 _481_
*1148 _482_
*1149 _483_
*1150 _484_
*1151 _485_
*1152 _486_
*1153 _487_
*1154 _488_
*1155 _489_
*1156 _490_
*1157 _491_
*1158 _492_
*1159 _493_
*1160 _494_
*1161 _495_
*1162 _496_
*1163 _497_
*1164 _498_
*1165 _499_
*1166 _500_
*1167 _501_
*1168 _502_
*1169 _503_
*1170 _504_
*1171 _505_
*1172 _506_
*1173 _507_
*1174 _508_
*1175 _509_
*1176 _510_
*1177 _511_
*1178 _512_
*1179 _513_
*1180 _514_
*1181 _515_
*1182 _516_
*1183 _517_
*1184 _518_
*1185 _519_
*1186 _520_
*1187 _521_
*1188 _522_
*1189 _523_
*1190 _524_
*1191 _525_
*1192 _526_
*1193 _527_
*1194 _528_
*1195 _529_
*1196 _530_
*1197 _531_
*1198 _532_
*1199 _533_
*1200 _534_
*1201 _535_
*1202 _536_
*1203 _537_
*1204 _538_
*1205 _539_
*1206 _540_
*1207 _541_
*1208 _542_
*1209 _543_
*1210 _544_
*1211 _545_
*1212 _546_
*1213 _547_
*1214 _548_
*1215 _549_
*1216 _550_
*1217 _551_
*1218 _552_
*1219 _553_
*1220 _554_
*1221 _555_
*1222 _556_
*1223 _557_
*1224 _558_
*1225 _559_
*1226 _560_
*1227 _561_
*1228 _562_
*1229 _563_
*1230 _564_
*1231 _565_
*1232 _566_
*1233 _567_
*1234 _568_
*1235 _569_
*1236 _570_
*1237 _571_
*1238 _572_
*1239 _573_
*1240 _574_
*1241 _575_
*1242 _576_
*1243 _577_
*1244 _578_
*1245 _579_
*1246 _580_
*1247 _581_
*1248 _582_
*1249 _583_
*1250 _584_
*1251 _585_
*1252 _586_
*1253 _587_
*1254 _588_
*1255 _589_
*1256 _590_
*1257 _591_
*1258 _592_
*1259 _593_
*1260 _594_
*1261 _595_
*1262 _596_
*1263 _597_
*1264 _598_
*1265 _599_
*1266 _600_
*1267 _601_
*1268 _602_
*1269 _603_
*1270 _604_
*1271 _605_
*1272 _606_
*1273 _607_
*1274 _608_
*1275 _609_
*1276 _610_
*1277 _611_
*1278 _612_
*1279 _613_
*1280 _614_
*1281 _615_
*1282 _616_
*1283 _617_
*1284 _618_
*1285 _619_
*1286 _620_
*1287 _621_
*1288 _622_
*1289 _623_
*1290 _624_
*1291 _625_
*1292 _626_
*1293 _627_
*1294 _628_
*1295 _629_
*1296 _630_
*1297 _631_
*1298 _632_
*1299 _633_
*1300 _634_
*1301 _635_
*1302 _636_
*1303 _637_
*1304 _638_
*1305 _639_
*1306 _640_
*1307 _641_
*1308 _642_
*1309 _643_
*1310 _644_
*1311 _645_
*1312 _646_
*1313 _647_
*1314 _648_
*1315 _649_
*1316 _650_
*1317 _651_
*1318 _652_
*1319 _653_
*1320 _654_
*1321 _655_
*1322 _656_
*1323 _657_
*1324 _658_
*1325 _659_
*1326 _660_
*1327 _661_
*1328 _662_
*1329 _663_
*1330 _664_
*1331 _665_
*1332 _666_
*1333 _667_
*1334 _668_
*1335 _669_
*1336 _670_
*1337 _671_
*1338 _672_
*1339 _673_
*1340 _674_
*1341 _675_
*1342 _676_
*1343 _677_
*1344 _678_
*1345 _679_
*1346 _680_
*1347 _681_
*1348 _682_
*1349 _683_
*1350 _684_
*1351 _685_
*1352 _686_
*1353 _687_
*1354 _688_
*1355 _689_
*1356 _690_
*1357 _691_
*1358 _692_
*1359 _693_
*1360 _694_
*1361 _695_
*1362 _696_
*1363 _697_
*1364 _698_
*1365 _699_
*1366 _700_
*1367 _701_
*1368 _702_
*1369 _703_
*1370 _704_
*1371 _705_
*1372 _706_
*1373 _707_
*1374 _708_
*1375 _709_
*1376 _710_
*1377 _711_
*1378 _712_
*1379 _713_
*1380 _714_
*1381 _715_
*1382 _716_
*1383 _717_
*1384 _718_
*1385 _719_
*1386 _720_
*1387 _721_
*1388 _722_
*1389 _723_
*1390 clkbuf_0_clk
*1391 puf_instance\.puf_loop\[0\]\.puf_inst\.dl0\.Q\$_DLATCH_N_\._TECHMAP_DLATCH_N_108
*1392 _726_
*1393 _727_
*1394 _728_
*1395 _729_
*1396 _730_
*1397 _731_
*1398 _732_
*1399 _733_
*1400 _734_
*1401 _735_
*1402 _736_
*1403 _737_
*1404 _738_
*1405 _739_
*1406 _740_
*1407 _741_
*1408 puf_instance\.OUT_reg\[0\]\$_DFF_PN0_
*1409 puf_instance\.OUT_reg\[1\]\$_DFF_PN0_
*1410 puf_instance\.OUT_reg\[2\]\$_DFF_PN0_
*1411 puf_instance\.OUT_reg\[3\]\$_DFF_PN0_
*1412 puf_instance\.OUT_reg\[4\]\$_DFF_PN0_
*1413 puf_instance\.OUT_reg\[5\]\$_DFF_PN0_
*1414 puf_instance\.OUT_reg\[6\]\$_DFF_PN0_
*1415 puf_instance\.OUT_reg\[7\]\$_DFF_PN0_
*1416 puf_instance\.puf_loop\[0\]\.puf_inst\.dl0\.Q\$_DLATCH_N_\._TECHMAP_DLATCH_N
*1417 puf_instance\.puf_loop\[0\]\.puf_inst\.dl1\.Q\$_DLATCH_N_\._TECHMAP_DLATCH_N
*1418 puf_instance\.puf_loop\[100\]\.puf_inst\.dl0\.Q\$_DLATCH_N_\._TECHMAP_DLATCH_N
*1419 puf_instance\.puf_loop\[100\]\.puf_inst\.dl1\.Q\$_DLATCH_N_\._TECHMAP_DLATCH_N
*1420 puf_instance\.puf_loop\[101\]\.puf_inst\.dl0\.Q\$_DLATCH_N_\._TECHMAP_DLATCH_N
*1421 puf_instance\.puf_loop\[101\]\.puf_inst\.dl1\.Q\$_DLATCH_N_\._TECHMAP_DLATCH_N
*1422 puf_instance\.puf_loop\[102\]\.puf_inst\.dl0\.Q\$_DLATCH_N_\._TECHMAP_DLATCH_N
*1423 puf_instance\.puf_loop\[102\]\.puf_inst\.dl1\.Q\$_DLATCH_N_\._TECHMAP_DLATCH_N
*1424 puf_instance\.puf_loop\[103\]\.puf_inst\.dl0\.Q\$_DLATCH_N_\._TECHMAP_DLATCH_N
*1425 puf_instance\.puf_loop\[103\]\.puf_inst\.dl1\.Q\$_DLATCH_N_\._TECHMAP_DLATCH_N
*1426 puf_instance\.puf_loop\[104\]\.puf_inst\.dl0\.Q\$_DLATCH_N_\._TECHMAP_DLATCH_N
*1427 puf_instance\.puf_loop\[104\]\.puf_inst\.dl1\.Q\$_DLATCH_N_\._TECHMAP_DLATCH_N
*1428 puf_instance\.puf_loop\[105\]\.puf_inst\.dl0\.Q\$_DLATCH_N_\._TECHMAP_DLATCH_N
*1429 puf_instance\.puf_loop\[105\]\.puf_inst\.dl1\.Q\$_DLATCH_N_\._TECHMAP_DLATCH_N
*1430 puf_instance\.puf_loop\[106\]\.puf_inst\.dl0\.Q\$_DLATCH_N_\._TECHMAP_DLATCH_N
*1431 puf_instance\.puf_loop\[106\]\.puf_inst\.dl1\.Q\$_DLATCH_N_\._TECHMAP_DLATCH_N
*1432 puf_instance\.puf_loop\[107\]\.puf_inst\.dl0\.Q\$_DLATCH_N_\._TECHMAP_DLATCH_N
*1433 puf_instance\.puf_loop\[107\]\.puf_inst\.dl1\.Q\$_DLATCH_N_\._TECHMAP_DLATCH_N
*1434 puf_instance\.puf_loop\[108\]\.puf_inst\.dl0\.Q\$_DLATCH_N_\._TECHMAP_DLATCH_N
*1435 puf_instance\.puf_loop\[108\]\.puf_inst\.dl1\.Q\$_DLATCH_N_\._TECHMAP_DLATCH_N
*1436 puf_instance\.puf_loop\[109\]\.puf_inst\.dl0\.Q\$_DLATCH_N_\._TECHMAP_DLATCH_N
*1437 puf_instance\.puf_loop\[109\]\.puf_inst\.dl1\.Q\$_DLATCH_N_\._TECHMAP_DLATCH_N
*1438 puf_instance\.puf_loop\[10\]\.puf_inst\.dl0\.Q\$_DLATCH_N_\._TECHMAP_DLATCH_N
*1439 puf_instance\.puf_loop\[10\]\.puf_inst\.dl1\.Q\$_DLATCH_N_\._TECHMAP_DLATCH_N
*1440 puf_instance\.puf_loop\[110\]\.puf_inst\.dl0\.Q\$_DLATCH_N_\._TECHMAP_DLATCH_N
*1441 puf_instance\.puf_loop\[110\]\.puf_inst\.dl1\.Q\$_DLATCH_N_\._TECHMAP_DLATCH_N
*1442 puf_instance\.puf_loop\[111\]\.puf_inst\.dl0\.Q\$_DLATCH_N_\._TECHMAP_DLATCH_N
*1443 puf_instance\.puf_loop\[111\]\.puf_inst\.dl1\.Q\$_DLATCH_N_\._TECHMAP_DLATCH_N
*1444 puf_instance\.puf_loop\[112\]\.puf_inst\.dl0\.Q\$_DLATCH_N_\._TECHMAP_DLATCH_N
*1445 puf_instance\.puf_loop\[112\]\.puf_inst\.dl1\.Q\$_DLATCH_N_\._TECHMAP_DLATCH_N
*1446 puf_instance\.puf_loop\[113\]\.puf_inst\.dl0\.Q\$_DLATCH_N_\._TECHMAP_DLATCH_N
*1447 puf_instance\.puf_loop\[113\]\.puf_inst\.dl1\.Q\$_DLATCH_N_\._TECHMAP_DLATCH_N
*1448 puf_instance\.puf_loop\[114\]\.puf_inst\.dl0\.Q\$_DLATCH_N_\._TECHMAP_DLATCH_N
*1449 puf_instance\.puf_loop\[114\]\.puf_inst\.dl1\.Q\$_DLATCH_N_\._TECHMAP_DLATCH_N
*1450 puf_instance\.puf_loop\[115\]\.puf_inst\.dl0\.Q\$_DLATCH_N_\._TECHMAP_DLATCH_N
*1451 puf_instance\.puf_loop\[115\]\.puf_inst\.dl1\.Q\$_DLATCH_N_\._TECHMAP_DLATCH_N
*1452 puf_instance\.puf_loop\[116\]\.puf_inst\.dl0\.Q\$_DLATCH_N_\._TECHMAP_DLATCH_N
*1453 puf_instance\.puf_loop\[116\]\.puf_inst\.dl1\.Q\$_DLATCH_N_\._TECHMAP_DLATCH_N
*1454 puf_instance\.puf_loop\[117\]\.puf_inst\.dl0\.Q\$_DLATCH_N_\._TECHMAP_DLATCH_N
*1455 puf_instance\.puf_loop\[117\]\.puf_inst\.dl1\.Q\$_DLATCH_N_\._TECHMAP_DLATCH_N
*1456 puf_instance\.puf_loop\[118\]\.puf_inst\.dl0\.Q\$_DLATCH_N_\._TECHMAP_DLATCH_N