*SPEF "ieee 1481-1999"
*DESIGN "tt_um_dlmiles_bad_synchronizer"
*DATE "21:21:32 Sunday November 03, 2024"
*VENDOR "The OpenROAD Project"
*PROGRAM "OpenROAD"
*VERSION "v2.0-16649-g40811f37f"
*DESIGN_FLOW "NAME_SCOPE LOCAL" "PIN_CAP NONE"
*DIVIDER /
*DELIMITER :
*BUS_DELIMITER []
*T_UNIT 1 NS
*C_UNIT 1 PF
*R_UNIT 1 OHM
*L_UNIT 1 HENRY

*NAME_MAP
*1 _00_
*2 _01_
*3 _02_
*4 _03_
*5 _04_
*6 _05_
*7 _06_
*8 _07_
*9 _08_
*10 _09_
*11 _10_
*12 _11_
*13 _12_
*14 _13_
*15 _14_
*16 _15_
*17 _16_
*18 _17_
*19 clknet_0_clk
*20 net22
*21 clk
*22 ena
*23 rst_n
*24 skew
*25 ui_in[0]
*26 ui_in[1]
*27 ui_in[2]
*28 ui_in[3]
*29 ui_in[4]
*30 ui_in[5]
*31 ui_in[6]
*32 ui_in[7]
*33 uio_in[0]
*34 uio_in[1]
*35 uio_in[2]
*36 uio_in[3]
*37 uio_in[4]
*38 uio_in[5]
*39 uio_in[6]
*40 uio_in[7]
*41 uio_oe[0]
*42 uio_oe[1]
*43 uio_oe[2]
*44 uio_oe[3]
*45 uio_oe[4]
*46 uio_oe[5]
*47 uio_oe[6]
*48 uio_oe[7]
*49 uio_out[0]
*50 uio_out[1]
*51 uio_out[2]
*52 uio_out[3]
*53 uio_out[4]
*54 uio_out[5]
*55 uio_out[6]
*56 uio_out[7]
*57 uo_out[0]
*58 uo_out[1]
*59 uo_out[2]
*60 uo_out[3]
*61 uo_out[4]
*62 uo_out[5]
*63 uo_out[6]
*64 uo_out[7]
*67 net1
*68 net2
*69 net3
*70 net4
*71 net5
*72 net6
*73 net7
*74 net8
*75 net9
*76 net10
*77 net11
*78 net12
*79 net13
*80 net14
*81 net15
*82 net16
*83 net17
*84 net18
*85 net19
*86 net20
*87 net21
*88 net23
*89 net24
*90 net25
*91 net26
*92 net27
*93 net28
*94 net29
*95 clknet_1_0__leaf_clk
*96 clknet_1_1__leaf_clk
*97 _20_
*98 _21_
*99 _22_
*100 _23_
*101 _24_
*102 clkbuf_0_clk
*103 _27__22
*104 _27_
*105 _28_
*106 _29_
*107 _30_
*108 _31_
*109 _32_
*110 _33_
*111 _34_
*112 _35_
*113 _36_
*114 _37_
*115 _38_
*116 skew\$_DFF_PN0_
*117 stage1\[0\]\$_DFF_PN0_
*118 stage1\[1\]\$_DFF_PN0_
*119 stage1\[2\]\$_DFF_PN0_
*120 stage1\[3\]\$_DFF_PN0_
*121 stage2\[0\]\$_DFF_PN0_
*122 stage2\[1\]\$_DFF_PN0_
*123 stage2\[2\]\$_DFF_PN0_
*124 stage2\[3\]\$_DFF_PN0_
*125 stage3\[0\]\$_DFF_PN0_
*126 stage3\[1\]\$_DFF_PN0_
*127 stage3\[2\]\$_DFF_PN0_
*128 stage3\[3\]\$_DFF_PN0_
*129 input1
*130 input2
*131 output3
*132 output4
*133 output5
*134 output6
*135 output7
*136 output8
*137 output9
*138 output10
*139 output11
*140 output12
*141 output13
*142 output14
*143 output15
*144 fanout16
*145 fanout17
*146 fanout18
*147 _36__19
*148 _37__20
*149 _38__21
*150 _28__23
*151 _29__24
*152 _30__25
*153 _31__26
*154 _32__27
*155 _33__28
*156 _34__29
*157 clkbuf_1_0__f_clk
*158 clkbuf_1_1__f_clk
*159 clkload0
*160 FILLER_0_0
*161 FILLER_0_7
*162 FILLER_0_14
*163 FILLER_0_21
*164 FILLER_0_28
*165 FILLER_0_35
*166 FILLER_0_42
*167 FILLER_0_49
*168 FILLER_0_56
*169 FILLER_0_63
*170 FILLER_0_70
*171 FILLER_0_77
*172 FILLER_0_84
*173 FILLER_0_91
*174 FILLER_0_98
*175 FILLER_0_105
*176 FILLER_0_112
*177 FILLER_0_119
*178 FILLER_0_126
*179 FILLER_0_133
*180 FILLER_0_140
*181 FILLER_0_147
*182 FILLER_0_154
*183 FILLER_0_161
*184 FILLER_0_168
*185 FILLER_0_175
*186 FILLER_0_182
*187 FILLER_0_189
*188 FILLER_0_196
*189 FILLER_0_203
*190 FILLER_0_210
*191 FILLER_0_217
*192 FILLER_0_224
*193 FILLER_0_231
*194 FILLER_0_238
*195 FILLER_0_245
*196 FILLER_0_252
*197 FILLER_0_259
*198 FILLER_0_266
*199 FILLER_0_273
*200 FILLER_0_280
*201 FILLER_0_287
*202 FILLER_0_294
*203 FILLER_0_301
*204 FILLER_0_308
*205 FILLER_0_315
*206 FILLER_0_322
*207 FILLER_0_329
*208 FILLER_0_336
*209 FILLER_0_343
*210 FILLER_0_350
*211 FILLER_0_357
*212 FILLER_0_364
*213 FILLER_0_371
*214 FILLER_0_378
*215 FILLER_0_385
*216 FILLER_0_392
*217 FILLER_0_399
*218 FILLER_0_406
*219 FILLER_0_413
*220 FILLER_0_420
*221 FILLER_0_427
*222 FILLER_0_429
*223 FILLER_1_0
*224 FILLER_1_7
*225 FILLER_1_14
*226 FILLER_1_21
*227 FILLER_1_28
*228 FILLER_1_35
*229 FILLER_1_42
*230 FILLER_1_49
*231 FILLER_1_56
*232 FILLER_1_63
*233 FILLER_1_70
*234 FILLER_1_77
*235 FILLER_1_84
*236 FILLER_1_91
*237 FILLER_1_98
*238 FILLER_1_105
*239 FILLER_1_112
*240 FILLER_1_119
*241 FILLER_1_126
*242 FILLER_1_133
*243 FILLER_1_140
*244 FILLER_1_147
*245 FILLER_1_154
*246 FILLER_1_161
*247 FILLER_1_168
*248 FILLER_1_175
*249 FILLER_1_182
*250 FILLER_1_189
*251 FILLER_1_196
*252 FILLER_1_203
*253 FILLER_1_210
*254 FILLER_1_217
*255 FILLER_1_224
*256 FILLER_1_231
*257 FILLER_1_238
*258 FILLER_1_245
*259 FILLER_1_252
*260 FILLER_1_259
*261 FILLER_1_266
*262 FILLER_1_273
*263 FILLER_1_280
*264 FILLER_1_287
*265 FILLER_1_294
*266 FILLER_1_301
*267 FILLER_1_308
*268 FILLER_1_315
*269 FILLER_1_322
*270 FILLER_1_329
*271 FILLER_1_336
*272 FILLER_1_343
*273 FILLER_1_350
*274 FILLER_1_357
*275 FILLER_1_364
*276 FILLER_1_371
*277 FILLER_1_378
*278 FILLER_1_385
*279 FILLER_1_392
*280 FILLER_1_399
*281 FILLER_1_406
*282 FILLER_1_413
*283 FILLER_1_420
*284 FILLER_1_427
*285 FILLER_1_429
*286 FILLER_2_0
*287 FILLER_2_7
*288 FILLER_2_14
*289 FILLER_2_21
*290 FILLER_2_28
*291 FILLER_2_35
*292 FILLER_2_42
*293 FILLER_2_49
*294 FILLER_2_56
*295 FILLER_2_63
*296 FILLER_2_70
*297 FILLER_2_77
*298 FILLER_2_84
*299 FILLER_2_91
*300 FILLER_2_98
*301 FILLER_2_105
*302 FILLER_2_112
*303 FILLER_2_119
*304 FILLER_2_126
*305 FILLER_2_133
*306 FILLER_2_140
*307 FILLER_2_147
*308 FILLER_2_154
*309 FILLER_2_161
*310 FILLER_2_168
*311 FILLER_2_175
*312 FILLER_2_182
*313 FILLER_2_189
*314 FILLER_2_196
*315 FILLER_2_203
*316 FILLER_2_210
*317 FILLER_2_217
*318 FILLER_2_224
*319 FILLER_2_231
*320 FILLER_2_238
*321 FILLER_2_245
*322 FILLER_2_252
*323 FILLER_2_259
*324 FILLER_2_266
*325 FILLER_2_273
*326 FILLER_2_280
*327 FILLER_2_287
*328 FILLER_2_294
*329 FILLER_2_301
*330 FILLER_2_308
*331 FILLER_2_315
*332 FILLER_2_322
*333 FILLER_2_329
*334 FILLER_2_336
*335 FILLER_2_343
*336 FILLER_2_350
*337 FILLER_2_357
*338 FILLER_2_364
*339 FILLER_2_371
*340 FILLER_2_378
*341 FILLER_2_385
*342 FILLER_2_392
*343 FILLER_2_399
*344 FILLER_2_406
*345 FILLER_2_413
*346 FILLER_2_420
*347 FILLER_2_427
*348 FILLER_2_429
*349 FILLER_3_0
*350 FILLER_3_7
*351 FILLER_3_14
*352 FILLER_3_21
*353 FILLER_3_28
*354 FILLER_3_35
*355 FILLER_3_42
*356 FILLER_3_49
*357 FILLER_3_56
*358 FILLER_3_63
*359 FILLER_3_70
*360 FILLER_3_77
*361 FILLER_3_84
*362 FILLER_3_91
*363 FILLER_3_98
*364 FILLER_3_105
*365 FILLER_3_112
*366 FILLER_3_119
*367 FILLER_3_126
*368 FILLER_3_133
*369 FILLER_3_140
*370 FILLER_3_147
*371 FILLER_3_154
*372 FILLER_3_161
*373 FILLER_3_168
*374 FILLER_3_175
*375 FILLER_3_182
*376 FILLER_3_189
*377 FILLER_3_196
*378 FILLER_3_203
*379 FILLER_3_210
*380 FILLER_3_217
*381 FILLER_3_224
*382 FILLER_3_231
*383 FILLER_3_238
*384 FILLER_3_245
*385 FILLER_3_252
*386 FILLER_3_259
*387 FILLER_3_266
*388 FILLER_3_273
*389 FILLER_3_280
*390 FILLER_3_287
*391 FILLER_3_294
*392 FILLER_3_301
*393 FILLER_3_308
*394 FILLER_3_315
*395 FILLER_3_322
*396 FILLER_3_329
*397 FILLER_3_336
*398 FILLER_3_343
*399 FILLER_3_350
*400 FILLER_3_357
*401 FILLER_3_364
*402 FILLER_3_371
*403 FILLER_3_378
*404 FILLER_3_385
*405 FILLER_3_392
*406 FILLER_3_399
*407 FILLER_3_406
*408 FILLER_3_413
*409 FILLER_3_420
*410 FILLER_3_427
*411 FILLER_3_429
*412 FILLER_4_0
*413 FILLER_4_7
*414 FILLER_4_14
*415 FILLER_4_21
*416 FILLER_4_28
*417 FILLER_4_35
*418 FILLER_4_42
*419 FILLER_4_49
*420 FILLER_4_56
*421 FILLER_4_63
*422 FILLER_4_70
*423 FILLER_4_77
*424 FILLER_4_84
*425 FILLER_4_91
*426 FILLER_4_98
*427 FILLER_4_105
*428 FILLER_4_112
*429 FILLER_4_119
*430 FILLER_4_126
*431 FILLER_4_133
*432 FILLER_4_140
*433 FILLER_4_147
*434 FILLER_4_154
*435 FILLER_4_161
*436 FILLER_4_168
*437 FILLER_4_175
*438 FILLER_4_182
*439 FILLER_4_189
*440 FILLER_4_196
*441 FILLER_4_203
*442 FILLER_4_210
*443 FILLER_4_217
*444 FILLER_4_224
*445 FILLER_4_231
*446 FILLER_4_238
*447 FILLER_4_245
*448 FILLER_4_252
*449 FILLER_4_259
*450 FILLER_4_266
*451 FILLER_4_273
*452 FILLER_4_280
*453 FILLER_4_287
*454 FILLER_4_294
*455 FILLER_4_301
*456 FILLER_4_308
*457 FILLER_4_315
*458 FILLER_4_322
*459 FILLER_4_329
*460 FILLER_4_336
*461 FILLER_4_343
*462 FILLER_4_350
*463 FILLER_4_357
*464 FILLER_4_364
*465 FILLER_4_371
*466 FILLER_4_378
*467 FILLER_4_385
*468 FILLER_4_392
*469 FILLER_4_399
*470 FILLER_4_406
*471 FILLER_4_413
*472 FILLER_4_420
*473 FILLER_4_427
*474 FILLER_4_429
*475 FILLER_5_0
*476 FILLER_5_7
*477 FILLER_5_14
*478 FILLER_5_21
*479 FILLER_5_28
*480 FILLER_5_35
*481 FILLER_5_42
*482 FILLER_5_49
*483 FILLER_5_56
*484 FILLER_5_63
*485 FILLER_5_70
*486 FILLER_5_77
*487 FILLER_5_84
*488 FILLER_5_91
*489 FILLER_5_98
*490 FILLER_5_105
*491 FILLER_5_112
*492 FILLER_5_119
*493 FILLER_5_126
*494 FILLER_5_133
*495 FILLER_5_140
*496 FILLER_5_147
*497 FILLER_5_154
*498 FILLER_5_161
*499 FILLER_5_168
*500 FILLER_5_175
*501 FILLER_5_182
*502 FILLER_5_189
*503 FILLER_5_196
*504 FILLER_5_203
*505 FILLER_5_210
*506 FILLER_5_217
*507 FILLER_5_224
*508 FILLER_5_231
*509 FILLER_5_238
*510 FILLER_5_245
*511 FILLER_5_252
*512 FILLER_5_259
*513 FILLER_5_266
*514 FILLER_5_273
*515 FILLER_5_280
*516 FILLER_5_287
*517 FILLER_5_294
*518 FILLER_5_301
*519 FILLER_5_308
*520 FILLER_5_315
*521 FILLER_5_322
*522 FILLER_5_329
*523 FILLER_5_336
*524 FILLER_5_343
*525 FILLER_5_350
*526 FILLER_5_357
*527 FILLER_5_364
*528 FILLER_5_371
*529 FILLER_5_378
*530 FILLER_5_385
*531 FILLER_5_392
*532 FILLER_5_399
*533 FILLER_5_406
*534 FILLER_5_413
*535 FILLER_5_420
*536 FILLER_5_427
*537 FILLER_5_429
*538 FILLER_6_0
*539 FILLER_6_7
*540 FILLER_6_14
*541 FILLER_6_21
*542 FILLER_6_28
*543 FILLER_6_35
*544 FILLER_6_42
*545 FILLER_6_49
*546 FILLER_6_56
*547 FILLER_6_63
*548 FILLER_6_70
*549 FILLER_6_77
*550 FILLER_6_84
*551 FILLER_6_91
*552 FILLER_6_98
*553 FILLER_6_105
*554 FILLER_6_112
*555 FILLER_6_119
*556 FILLER_6_126
*557 FILLER_6_133
*558 FILLER_6_140
*559 FILLER_6_147
*560 FILLER_6_154
*561 FILLER_6_161
*562 FILLER_6_168
*563 FILLER_6_175
*564 FILLER_6_182
*565 FILLER_6_189
*566 FILLER_6_196
*567 FILLER_6_203
*568 FILLER_6_210
*569 FILLER_6_217
*570 FILLER_6_224
*571 FILLER_6_231
*572 FILLER_6_238
*573 FILLER_6_245
*574 FILLER_6_252
*575 FILLER_6_259
*576 FILLER_6_266
*577 FILLER_6_273
*578 FILLER_6_280
*579 FILLER_6_287
*580 FILLER_6_294
*581 FILLER_6_301
*582 FILLER_6_308
*583 FILLER_6_315
*584 FILLER_6_322
*585 FILLER_6_329
*586 FILLER_6_336
*587 FILLER_6_343
*588 FILLER_6_350
*589 FILLER_6_357
*590 FILLER_6_364
*591 FILLER_6_371
*592 FILLER_6_378
*593 FILLER_6_385
*594 FILLER_6_392
*595 FILLER_6_399
*596 FILLER_6_406
*597 FILLER_6_413
*598 FILLER_6_420
*599 FILLER_6_427
*600 FILLER_6_429
*601 FILLER_7_0
*602 FILLER_7_7
*603 FILLER_7_14
*604 FILLER_7_21
*605 FILLER_7_28
*606 FILLER_7_35
*607 FILLER_7_42
*608 FILLER_7_49
*609 FILLER_7_56
*610 FILLER_7_63
*611 FILLER_7_70
*612 FILLER_7_77
*613 FILLER_7_84
*614 FILLER_7_91
*615 FILLER_7_98
*616 FILLER_7_105
*617 FILLER_7_112
*618 FILLER_7_119
*619 FILLER_7_126
*620 FILLER_7_133
*621 FILLER_7_140
*622 FILLER_7_147
*623 FILLER_7_154
*624 FILLER_7_161
*625 FILLER_7_168
*626 FILLER_7_175
*627 FILLER_7_182
*628 FILLER_7_189
*629 FILLER_7_196
*630 FILLER_7_203
*631 FILLER_7_210
*632 FILLER_7_217
*633 FILLER_7_224
*634 FILLER_7_231
*635 FILLER_7_238
*636 FILLER_7_245
*637 FILLER_7_252
*638 FILLER_7_259
*639 FILLER_7_266
*640 FILLER_7_273
*641 FILLER_7_280
*642 FILLER_7_287
*643 FILLER_7_294
*644 FILLER_7_301
*645 FILLER_7_308
*646 FILLER_7_315
*647 FILLER_7_322
*648 FILLER_7_329
*649 FILLER_7_336
*650 FILLER_7_343
*651 FILLER_7_350
*652 FILLER_7_357
*653 FILLER_7_364
*654 FILLER_7_371
*655 FILLER_7_378
*656 FILLER_7_385
*657 FILLER_7_392
*658 FILLER_7_399
*659 FILLER_7_406
*660 FILLER_7_413
*661 FILLER_7_420
*662 FILLER_7_427
*663 FILLER_7_429
*664 FILLER_8_0
*665 FILLER_8_7
*666 FILLER_8_14
*667 FILLER_8_21
*668 FILLER_8_28
*669 FILLER_8_35
*670 FILLER_8_42
*671 FILLER_8_49
*672 FILLER_8_56
*673 FILLER_8_63
*674 FILLER_8_70
*675 FILLER_8_77
*676 FILLER_8_84
*677 FILLER_8_91
*678 FILLER_8_98
*679 FILLER_8_105
*680 FILLER_8_112
*681 FILLER_8_119
*682 FILLER_8_126
*683 FILLER_8_133
*684 FILLER_8_140
*685 FILLER_8_147
*686 FILLER_8_154
*687 FILLER_8_161
*688 FILLER_8_168
*689 FILLER_8_175
*690 FILLER_8_182
*691 FILLER_8_189
*692 FILLER_8_196
*693 FILLER_8_203
*694 FILLER_8_210
*695 FILLER_8_217
*696 FILLER_8_224
*697 FILLER_8_231
*698 FILLER_8_238
*699 FILLER_8_245
*700 FILLER_8_252
*701 FILLER_8_259
*702 FILLER_8_266
*703 FILLER_8_273
*704 FILLER_8_280
*705 FILLER_8_287
*706 FILLER_8_294
*707 FILLER_8_301
*708 FILLER_8_308
*709 FILLER_8_315
*710 FILLER_8_322
*711 FILLER_8_329
*712 FILLER_8_336
*713 FILLER_8_343
*714 FILLER_8_350
*715 FILLER_8_357
*716 FILLER_8_364
*717 FILLER_8_371
*718 FILLER_8_378
*719 FILLER_8_385
*720 FILLER_8_392
*721 FILLER_8_399
*722 FILLER_8_406
*723 FILLER_8_413
*724 FILLER_8_420
*725 FILLER_8_427
*726 FILLER_8_429
*727 FILLER_9_0
*728 FILLER_9_7
*729 FILLER_9_14
*730 FILLER_9_21
*731 FILLER_9_28
*732 FILLER_9_35
*733 FILLER_9_42
*734 FILLER_9_49
*735 FILLER_9_56
*736 FILLER_9_63
*737 FILLER_9_70
*738 FILLER_9_77
*739 FILLER_9_84
*740 FILLER_9_91
*741 FILLER_9_98
*742 FILLER_9_105
*743 FILLER_9_112
*744 FILLER_9_119
*745 FILLER_9_126
*746 FILLER_9_133
*747 FILLER_9_140
*748 FILLER_9_147
*749 FILLER_9_154
*750 FILLER_9_161
*751 FILLER_9_168
*752 FILLER_9_175
*753 FILLER_9_182
*754 FILLER_9_189
*755 FILLER_9_196
*756 FILLER_9_203
*757 FILLER_9_210
*758 FILLER_9_217
*759 FILLER_9_224
*760 FILLER_9_231
*761 FILLER_9_238
*762 FILLER_9_245
*763 FILLER_9_252
*764 FILLER_9_259
*765 FILLER_9_266
*766 FILLER_9_273
*767 FILLER_9_280
*768 FILLER_9_287
*769 FILLER_9_294
*770 FILLER_9_301
*771 FILLER_9_308
*772 FILLER_9_315
*773 FILLER_9_322
*774 FILLER_9_329
*775 FILLER_9_336
*776 FILLER_9_343
*777 FILLER_9_350
*778 FILLER_9_357
*779 FILLER_9_364
*780 FILLER_9_371
*781 FILLER_9_378
*782 FILLER_9_385
*783 FILLER_9_392
*784 FILLER_9_399
*785 FILLER_9_406
*786 FILLER_9_413
*787 FILLER_9_420
*788 FILLER_9_427
*789 FILLER_9_429
*790 FILLER_10_0
*791 FILLER_10_7
*792 FILLER_10_14
*793 FILLER_10_21
*794 FILLER_10_28
*795 FILLER_10_35
*796 FILLER_10_42
*797 FILLER_10_49
*798 FILLER_10_56
*799 FILLER_10_63
*800 FILLER_10_70
*801 FILLER_10_77
*802 FILLER_10_84
*803 FILLER_10_91
*804 FILLER_10_98
*805 FILLER_10_105
*806 FILLER_10_112
*807 FILLER_10_119
*808 FILLER_10_126
*809 FILLER_10_133
*810 FILLER_10_140
*811 FILLER_10_147
*812 FILLER_10_154
*813 FILLER_10_161
*814 FILLER_10_168
*815 FILLER_10_175
*816 FILLER_10_182
*817 FILLER_10_189
*818 FILLER_10_196
*819 FILLER_10_203
*820 FILLER_10_210
*821 FILLER_10_217
*822 FILLER_10_224
*823 FILLER_10_231
*824 FILLER_10_238
*825 FILLER_10_245
*826 FILLER_10_252
*827 FILLER_10_259
*828 FILLER_10_266
*829 FILLER_10_273
*830 FILLER_10_280
*831 FILLER_10_287
*832 FILLER_10_294
*833 FILLER_10_301
*834 FILLER_10_308
*835 FILLER_10_315
*836 FILLER_10_322
*837 FILLER_10_329
*838 FILLER_10_336
*839 FILLER_10_343
*840 FILLER_10_350
*841 FILLER_10_357
*842 FILLER_10_364
*843 FILLER_10_371
*844 FILLER_10_378
*845 FILLER_10_385
*846 FILLER_10_392
*847 FILLER_10_399
*848 FILLER_10_406
*849 FILLER_10_413
*850 FILLER_10_420
*851 FILLER_10_427
*852 FILLER_10_429
*853 FILLER_11_0
*854 FILLER_11_7
*855 FILLER_11_14
*856 FILLER_11_21
*857 FILLER_11_28
*858 FILLER_11_35
*859 FILLER_11_42
*860 FILLER_11_49
*861 FILLER_11_56
*862 FILLER_11_63
*863 FILLER_11_70
*864 FILLER_11_77
*865 FILLER_11_84
*866 FILLER_11_91
*867 FILLER_11_98
*868 FILLER_11_105
*869 FILLER_11_112
*870 FILLER_11_119
*871 FILLER_11_126
*872 FILLER_11_133
*873 FILLER_11_140
*874 FILLER_11_147
*875 FILLER_11_154
*876 FILLER_11_161
*877 FILLER_11_168
*878 FILLER_11_175
*879 FILLER_11_182
*880 FILLER_11_189
*881 FILLER_11_196
*882 FILLER_11_203
*883 FILLER_11_210
*884 FILLER_11_217
*885 FILLER_11_224
*886 FILLER_11_231
*887 FILLER_11_238
*888 FILLER_11_245
*889 FILLER_11_252
*890 FILLER_11_259
*891 FILLER_11_266
*892 FILLER_11_273
*893 FILLER_11_280
*894 FILLER_11_287
*895 FILLER_11_294
*896 FILLER_11_301
*897 FILLER_11_308
*898 FILLER_11_315
*899 FILLER_11_322
*900 FILLER_11_329
*901 FILLER_11_336
*902 FILLER_11_343
*903 FILLER_11_350
*904 FILLER_11_357
*905 FILLER_11_364
*906 FILLER_11_371
*907 FILLER_11_378
*908 FILLER_11_385
*909 FILLER_11_392
*910 FILLER_11_399
*911 FILLER_11_406
*912 FILLER_11_413
*913 FILLER_11_420
*914 FILLER_11_427
*915 FILLER_11_429
*916 FILLER_12_0
*917 FILLER_12_7
*918 FILLER_12_14
*919 FILLER_12_21
*920 FILLER_12_28
*921 FILLER_12_35
*922 FILLER_12_42
*923 FILLER_12_49
*924 FILLER_12_56
*925 FILLER_12_63
*926 FILLER_12_70
*927 FILLER_12_77
*928 FILLER_12_84
*929 FILLER_12_91
*930 FILLER_12_98
*931 FILLER_12_105
*932 FILLER_12_112
*933 FILLER_12_119
*934 FILLER_12_126
*935 FILLER_12_133
*936 FILLER_12_140
*937 FILLER_12_147
*938 FILLER_12_154
*939 FILLER_12_161
*940 FILLER_12_168
*941 FILLER_12_175
*942 FILLER_12_182
*943 FILLER_12_189
*944 FILLER_12_196
*945 FILLER_12_203
*946 FILLER_12_210
*947 FILLER_12_217
*948 FILLER_12_224
*949 FILLER_12_231
*950 FILLER_12_238
*951 FILLER_12_245
*952 FILLER_12_252
*953 FILLER_12_259
*954 FILLER_12_266
*955 FILLER_12_273
*956 FILLER_12_280
*957 FILLER_12_287
*958 FILLER_12_294
*959 FILLER_12_301
*960 FILLER_12_308
*961 FILLER_12_315
*962 FILLER_12_322
*963 FILLER_12_329
*964 FILLER_12_336
*965 FILLER_12_343
*966 FILLER_12_350
*967 FILLER_12_357
*968 FILLER_12_364
*969 FILLER_12_371
*970 FILLER_12_378
*971 FILLER_12_385
*972 FILLER_12_392
*973 FILLER_12_399
*974 FILLER_12_406
*975 FILLER_12_413
*976 FILLER_12_420
*977 FILLER_12_427
*978 FILLER_12_429
*979 FILLER_13_0
*980 FILLER_13_7
*981 FILLER_13_14
*982 FILLER_13_21
*983 FILLER_13_28
*984 FILLER_13_35
*985 FILLER_13_42
*986 FILLER_13_49
*987 FILLER_13_56
*988 FILLER_13_63
*989 FILLER_13_70
*990 FILLER_13_77
*991 FILLER_13_84
*992 FILLER_13_91
*993 FILLER_13_98
*994 FILLER_13_105
*995 FILLER_13_112
*996 FILLER_13_119
*997 FILLER_13_126
*998 FILLER_13_133
*999 FILLER_13_140
*1000 FILLER_13_147
*1001 FILLER_13_154
*1002 FILLER_13_161
*1003 FILLER_13_168
*1004 FILLER_13_175
*1005 FILLER_13_182
*1006 FILLER_13_189
*1007 FILLER_13_196
*1008 FILLER_13_203
*1009 FILLER_13_210
*1010 FILLER_13_217
*1011 FILLER_13_224
*1012 FILLER_13_231
*1013 FILLER_13_238
*1014 FILLER_13_245
*1015 FILLER_13_252
*1016 FILLER_13_259
*1017 FILLER_13_266
*1018 FILLER_13_273
*1019 FILLER_13_280
*1020 FILLER_13_287
*1021 FILLER_13_294
*1022 FILLER_13_301
*1023 FILLER_13_308
*1024 FILLER_13_315
*1025 FILLER_13_322
*1026 FILLER_13_329
*1027 FILLER_13_336
*1028 FILLER_13_343
*1029 FILLER_13_350
*1030 FILLER_13_357
*1031 FILLER_13_364
*1032 FILLER_13_371
*1033 FILLER_13_378
*1034 FILLER_13_385
*1035 FILLER_13_392
*1036 FILLER_13_399
*1037 FILLER_13_406
*1038 FILLER_13_413
*1039 FILLER_13_420
*1040 FILLER_13_427
*1041 FILLER_13_429
*1042 FILLER_14_0
*1043 FILLER_14_7
*1044 FILLER_14_14
*1045 FILLER_14_21
*1046 FILLER_14_28
*1047 FILLER_14_35
*1048 FILLER_14_42
*1049 FILLER_14_49
*1050 FILLER_14_56
*1051 FILLER_14_63
*1052 FILLER_14_70
*1053 FILLER_14_77
*1054 FILLER_14_84
*1055 FILLER_14_91
*1056 FILLER_14_98
*1057 FILLER_14_105
*1058 FILLER_14_112
*1059 FILLER_14_119
*1060 FILLER_14_126
*1061 FILLER_14_133
*1062 FILLER_14_140
*1063 FILLER_14_147
*1064 FILLER_14_154
*1065 FILLER_14_161
*1066 FILLER_14_168
*1067 FILLER_14_175
*1068 FILLER_14_182
*1069 FILLER_14_189
*1070 FILLER_14_196
*1071 FILLER_14_203
*1072 FILLER_14_210
*1073 FILLER_14_217
*1074 FILLER_14_224
*1075 FILLER_14_231
*1076 FILLER_14_238
*1077 FILLER_14_245
*1078 FILLER_14_252
*1079 FILLER_14_259
*1080 FILLER_14_266
*1081 FILLER_14_273
*1082 FILLER_14_280
*1083 FILLER_14_287
*1084 FILLER_14_294
*1085 FILLER_14_301
*1086 FILLER_14_308
*1087 FILLER_14_315
*1088 FILLER_14_322
*1089 FILLER_14_329
*1090 FILLER_14_336
*1091 FILLER_14_343
*1092 FILLER_14_350
*1093 FILLER_14_357
*1094 FILLER_14_364
*1095 FILLER_14_371
*1096 FILLER_14_378
*1097 FILLER_14_385
*1098 FILLER_14_392
*1099 FILLER_14_399
*1100 FILLER_14_406
*1101 FILLER_14_413
*1102 FILLER_14_420
*1103 FILLER_14_427
*1104 FILLER_14_429
*1105 FILLER_15_0
*1106 FILLER_15_7
*1107 FILLER_15_14
*1108 FILLER_15_21
*1109 FILLER_15_28
*1110 FILLER_15_35
*1111 FILLER_15_42
*1112 FILLER_15_49
*1113 FILLER_15_56
*1114 FILLER_15_63
*1115 FILLER_15_70
*1116 FILLER_15_77
*1117 FILLER_15_84
*1118 FILLER_15_91
*1119 FILLER_15_98
*1120 FILLER_15_105
*1121 FILLER_15_112
*1122 FILLER_15_119
*1123 FILLER_15_126
*1124 FILLER_15_133
*1125 FILLER_15_140
*1126 FILLER_15_147
*1127 FILLER_15_154
*1128 FILLER_15_161
*1129 FILLER_15_168
*1130 FILLER_15_175
*1131 FILLER_15_182
*1132 FILLER_15_189
*1133 FILLER_15_196
*1134 FILLER_15_203
*1135 FILLER_15_210
*1136 FILLER_15_217
*1137 FILLER_15_224
*1138 FILLER_15_231
*1139 FILLER_15_238
*1140 FILLER_15_245
*1141 FILLER_15_252
*1142 FILLER_15_259
*1143 FILLER_15_266
*1144 FILLER_15_273
*1145 FILLER_15_280
*1146 FILLER_15_287
*1147 FILLER_15_294
*1148 FILLER_15_301
*1149 FILLER_15_308
*1150 FILLER_15_315
*1151 FILLER_15_322
*1152 FILLER_15_329
*1153 FILLER_15_336
*1154 FILLER_15_343
*1155 FILLER_15_350
*1156 FILLER_15_357
*1157 FILLER_15_364
*1158 FILLER_15_371
*1159 FILLER_15_378
*1160 FILLER_15_385
*1161 FILLER_15_392
*1162 FILLER_15_399
*1163 FILLER_15_406
*1164 FILLER_15_413
*1165 FILLER_15_420
*1166 FILLER_15_427
*1167 FILLER_15_429
*1168 FILLER_16_0
*1169 FILLER_16_7
*1170 FILLER_16_14
*1171 FILLER_16_21
*1172 FILLER_16_28
*1173 FILLER_16_35
*1174 FILLER_16_42
*1175 FILLER_16_49
*1176 FILLER_16_56
*1177 FILLER_16_63
*1178 FILLER_16_70
*1179 FILLER_16_77
*1180 FILLER_16_84
*1181 FILLER_16_91
*1182 FILLER_16_98
*1183 FILLER_16_105
*1184 FILLER_16_112
*1185 FILLER_16_119
*1186 FILLER_16_126
*1187 FILLER_16_133
*1188 FILLER_16_140
*1189 FILLER_16_147
*1190 FILLER_16_154
*1191 FILLER_16_161
*1192 FILLER_16_168
*1193 FILLER_16_175
*1194 FILLER_16_182
*1195 FILLER_16_189
*1196 FILLER_16_196
*1197 FILLER_16_203
*1198 FILLER_16_210
*1199 FILLER_16_217
*1200 FILLER_16_224
*1201 FILLER_16_231
*1202 FILLER_16_238
*1203 FILLER_16_245
*1204 FILLER_16_252
*1205 FILLER_16_259
*1206 FILLER_16_266
*1207 FILLER_16_273
*1208 FILLER_16_280
*1209 FILLER_16_287
*1210 FILLER_16_294
*1211 FILLER_16_301
*1212 FILLER_16_308
*1213 FILLER_16_315
*1214 FILLER_16_322
*1215 FILLER_16_329
*1216 FILLER_16_336
*1217 FILLER_16_343
*1218 FILLER_16_350
*1219 FILLER_16_357
*1220 FILLER_16_364
*1221 FILLER_16_371
*1222 FILLER_16_378
*1223 FILLER_16_385
*1224 FILLER_16_392
*1225 FILLER_16_399
*1226 FILLER_16_406
*1227 FILLER_16_413
*1228 FILLER_16_420
*1229 FILLER_16_427
*1230 FILLER_16_429
*1231 FILLER_17_0
*1232 FILLER_17_7
*1233 FILLER_17_14
*1234 FILLER_17_21
*1235 FILLER_17_28
*1236 FILLER_17_35
*1237 FILLER_17_42
*1238 FILLER_17_49
*1239 FILLER_17_56
*1240 FILLER_17_63
*1241 FILLER_17_70
*1242 FILLER_17_77
*1243 FILLER_17_84
*1244 FILLER_17_91
*1245 FILLER_17_98
*1246 FILLER_17_105
*1247 FILLER_17_112
*1248 FILLER_17_119
*1249 FILLER_17_126
*1250 FILLER_17_133
*1251 FILLER_17_140
*1252 FILLER_17_147
*1253 FILLER_17_154
*1254 FILLER_17_161
*1255 FILLER_17_168
*1256 FILLER_17_175
*1257 FILLER_17_182
*1258 FILLER_17_189
*1259 FILLER_17_196
*1260 FILLER_17_203
*1261 FILLER_17_210
*1262 FILLER_17_217
*1263 FILLER_17_224
*1264 FILLER_17_231
*1265 FILLER_17_238
*1266 FILLER_17_245
*1267 FILLER_17_252
*1268 FILLER_17_259
*1269 FILLER_17_266
*1270 FILLER_17_273
*1271 FILLER_17_280
*1272 FILLER_17_287
*1273 FILLER_17_294
*1274 FILLER_17_301
*1275 FILLER_17_308
*1276 FILLER_17_315
*1277 FILLER_17_322
*1278 FILLER_17_329
*1279 FILLER_17_336
*1280 FILLER_17_343
*1281 FILLER_17_350
*1282 FILLER_17_357
*1283 FILLER_17_364
*1284 FILLER_17_371
*1285 FILLER_17_378
*1286 FILLER_17_385
*1287 FILLER_17_392
*1288 FILLER_17_399
*1289 FILLER_17_406
*1290 FILLER_17_413
*1291 FILLER_17_420
*1292 FILLER_17_427
*1293 FILLER_17_429
*1294 FILLER_18_0
*1295 FILLER_18_7
*1296 FILLER_18_14
*1297 FILLER_18_21
*1298 FILLER_18_28
*1299 FILLER_18_35
*1300 FILLER_18_42
*1301 FILLER_18_49
*1302 FILLER_18_56
*1303 FILLER_18_63
*1304 FILLER_18_70
*1305 FILLER_18_77
*1306 FILLER_18_84
*1307 FILLER_18_91
*1308 FILLER_18_98
*1309 FILLER_18_105
*1310 FILLER_18_112
*1311 FILLER_18_119
*1312 FILLER_18_126
*1313 FILLER_18_133
*1314 FILLER_18_140
*1315 FILLER_18_147
*1316 FILLER_18_154
*1317 FILLER_18_161
*1318 FILLER_18_168
*1319 FILLER_18_175
*1320 FILLER_18_182
*1321 FILLER_18_189
*1322 FILLER_18_196
*1323 FILLER_18_203
*1324 FILLER_18_210
*1325 FILLER_18_217
*1326 FILLER_18_224
*1327 FILLER_18_231
*1328 FILLER_18_238
*1329 FILLER_18_245
*1330 FILLER_18_252
*1331 FILLER_18_259
*1332 FILLER_18_266
*1333 FILLER_18_273
*1334 FILLER_18_280
*1335 FILLER_18_287
*1336 FILLER_18_294
*1337 FILLER_18_301
*1338 FILLER_18_308
*1339 FILLER_18_315
*1340 FILLER_18_322
*1341 FILLER_18_329
*1342 FILLER_18_336
*1343 FILLER_18_343
*1344 FILLER_18_350
*1345 FILLER_18_357
*1346 FILLER_18_364
*1347 FILLER_18_371
*1348 FILLER_18_378
*1349 FILLER_18_385
*1350 FILLER_18_392
*1351 FILLER_18_399
*1352 FILLER_18_406
*1353 FILLER_18_413
*1354 FILLER_18_420
*1355 FILLER_18_427
*1356 FILLER_18_429
*1357 FILLER_19_0
*1358 FILLER_19_7
*1359 FILLER_19_14
*1360 FILLER_19_21
*1361 FILLER_19_28
*1362 FILLER_19_35
*1363 FILLER_19_42
*1364 FILLER_19_49
*1365 FILLER_19_56
*1366 FILLER_19_63
*1367 FILLER_19_70
*1368 FILLER_19_77
*1369 FILLER_19_84
*1370 FILLER_19_91
*1371 FILLER_19_98
*1372 FILLER_19_105
*1373 FILLER_19_112
*1374 FILLER_19_119
*1375 FILLER_19_126
*1376 FILLER_19_133
*1377 FILLER_19_140
*1378 FILLER_19_147
*1379 FILLER_19_154
*1380 FILLER_19_161
*1381 FILLER_19_168
*1382 FILLER_19_175
*1383 FILLER_19_182
*1384 FILLER_19_189
*1385 FILLER_19_196
*1386 FILLER_19_203
*1387 FILLER_19_210
*1388 FILLER_19_217
*1389 FILLER_19_224
*1390 FILLER_19_231
*1391 FILLER_19_238
*1392 FILLER_19_245
*1393 FILLER_19_252
*1394 FILLER_19_259
*1395 FILLER_19_266
*1396 FILLER_19_273
*1397 FILLER_19_280
*1398 FILLER_19_287
*1399 FILLER_19_294
*1400 FILLER_19_301
*1401 FILLER_19_308
*1402 FILLER_19_315
*1403 FILLER_19_322
*1404 FILLER_19_329
*1405 FILLER_19_336
*1406 FILLER_19_343
*1407 FILLER_19_350
*1408 FILLER_19_357
*1409 FILLER_19_364
*1410 FILLER_19_371
*1411 FILLER_19_378
*1412 FILLER_19_385
*1413 FILLER_19_392
*1414 FILLER_19_399
*1415 FILLER_19_406
*1416 FILLER_19_413
*1417 FILLER_19_420
*1418 FILLER_19_427
*1419 FILLER_19_429
*1420 FILLER_20_0
*1421 FILLER_20_7
*1422 FILLER_20_14
*1423 FILLER_20_21
*1424 FILLER_20_28
*1425 FILLER_20_35
*1426 FILLER_20_42
*1427 FILLER_20_49
*1428 FILLER_20_56
*1429 FILLER_20_63
*1430 FILLER_20_70
*1431 FILLER_20_77
*1432 FILLER_20_84
*1433 FILLER_20_91
*1434 FILLER_20_98
*1435 FILLER_20_105
*1436 FILLER_20_112
*1437 FILLER_20_119
*1438 FILLER_20_126
*1439 FILLER_20_133
*1440 FILLER_20_140
*1441 FILLER_20_147
*1442 FILLER_20_154
*1443 FILLER_20_161
*1444 FILLER_20_168
*1445 FILLER_20_175
*1446 FILLER_20_182
*1447 FILLER_20_189
*1448 FILLER_20_196
*1449 FILLER_20_203
*1450 FILLER_20_210
*1451 FILLER_20_217
*1452 FILLER_20_224
*1453 FILLER_20_231
*1454 FILLER_20_238
*1455 FILLER_20_245
*1456 FILLER_20_252
*1457 FILLER_20_259
*1458 FILLER_20_266
*1459 FILLER_20_273
*1460 FILLER_20_280
*1461 FILLER_20_287
*1462 FILLER_20_294
*1463 FILLER_20_301
*1464 FILLER_20_308
*1465 FILLER_20_315
*1466 FILLER_20_322
*1467 FILLER_20_329
*1468 FILLER_20_336
*1469 FILLER_20_343
*1470 FILLER_20_350
*1471 FILLER_20_357
*1472 FILLER_20_364
*1473 FILLER_20_371
*1474 FILLER_20_378
*1475 FILLER_20_385
*1476 FILLER_20_392
*1477 FILLER_20_399
*1478 FILLER_20_406
*1479 FILLER_20_413
*1480 FILLER_20_420
*1481 FILLER_20_427
*1482 FILLER_20_429
*1483 FILLER_21_0
*1484 FILLER_21_7
*1485 FILLER_21_14
*1486 FILLER_21_21
*1487 FILLER_21_28
*1488 FILLER_21_35
*1489 FILLER_21_42
*1490 FILLER_21_49
*1491 FILLER_21_56
*1492 FILLER_21_63
*1493 FILLER_21_70
*1494 FILLER_21_77
*1495 FILLER_21_84
*1496 FILLER_21_91
*1497 FILLER_21_98
*1498 FILLER_21_105
*1499 FILLER_21_112
*1500 FILLER_21_119
*1501 FILLER_21_126
*1502 FILLER_21_133
*1503 FILLER_21_140
*1504 FILLER_21_147
*1505 FILLER_21_154
*1506 FILLER_21_161
*1507 FILLER_21_168
*1508 FILLER_21_175
*1509 FILLER_21_182
*1510 FILLER_21_189
*1511 FILLER_21_196
*1512 FILLER_21_203
*1513 FILLER_21_210
*1514 FILLER_21_217
*1515 FILLER_21_224
*1516 FILLER_21_231
*1517 FILLER_21_238
*1518 FILLER_21_245
*1519 FILLER_21_252
*1520 FILLER_21_259
*1521 FILLER_21_266
*1522 FILLER_21_273
*1523 FILLER_21_280
*1524 FILLER_21_287
*1525 FILLER_21_294
*1526 FILLER_21_301
*1527 FILLER_21_308
*1528 FILLER_21_315
*1529 FILLER_21_322
*1530 FILLER_21_329
*1531 FILLER_21_336
*1532 FILLER_21_343
*1533 FILLER_21_350
*1534 FILLER_21_357
*1535 FILLER_21_364
*1536 FILLER_21_371
*1537 FILLER_21_378
*1538 FILLER_21_385
*1539 FILLER_21_392
*1540 FILLER_21_399
*1541 FILLER_21_406
*1542 FILLER_21_413
*1543 FILLER_21_420
*1544 FILLER_21_427
*1545 FILLER_21_429
*1546 FILLER_22_0
*1547 FILLER_22_7
*1548 FILLER_22_14
*1549 FILLER_22_21
*1550 FILLER_22_28
*1551 FILLER_22_35
*1552 FILLER_22_42
*1553 FILLER_22_49
*1554 FILLER_22_56
*1555 FILLER_22_63
*1556 FILLER_22_70
*1557 FILLER_22_77
*1558 FILLER_22_84
*1559 FILLER_22_91
*1560 FILLER_22_98
*1561 FILLER_22_105
*1562 FILLER_22_112
*1563 FILLER_22_119
*1564 FILLER_22_126
*1565 FILLER_22_133
*1566 FILLER_22_140
*1567 FILLER_22_147
*1568 FILLER_22_154
*1569 FILLER_22_161
*1570 FILLER_22_168
*1571 FILLER_22_175
*1572 FILLER_22_182
*1573 FILLER_22_189
*1574 FILLER_22_196
*1575 FILLER_22_203
*1576 FILLER_22_210
*1577 FILLER_22_217
*1578 FILLER_22_224
*1579 FILLER_22_231
*1580 FILLER_22_238
*1581 FILLER_22_245
*1582 FILLER_22_252
*1583 FILLER_22_259
*1584 FILLER_22_266
*1585 FILLER_22_273
*1586 FILLER_22_280
*1587 FILLER_22_287
*1588 FILLER_22_294
*1589 FILLER_22_301
*1590 FILLER_22_308
*1591 FILLER_22_315
*1592 FILLER_22_322
*1593 FILLER_22_329
*1594 FILLER_22_336
*1595 FILLER_22_343
*1596 FILLER_22_350
*1597 FILLER_22_357
*1598 FILLER_22_364
*1599 FILLER_22_371
*1600 FILLER_22_378
*1601 FILLER_22_385
*1602 FILLER_22_392
*1603 FILLER_22_399
*1604 FILLER_22_406
*1605 FILLER_22_413
*1606 FILLER_22_420
*1607 FILLER_22_427
*1608 FILLER_22_429
*1609 FILLER_23_0
*1610 FILLER_23_7
*1611 FILLER_23_14
*1612 FILLER_23_21
*1613 FILLER_23_28
*1614 FILLER_23_35
*1615 FILLER_23_42
*1616 FILLER_23_49
*1617 FILLER_23_56
*1618 FILLER_23_63
*1619 FILLER_23_70
*1620 FILLER_23_77
*1621 FILLER_23_84
*1622 FILLER_23_91
*1623 FILLER_23_98
*1624 FILLER_23_105
*1625 FILLER_23_112
*1626 FILLER_23_119
*1627 FILLER_23_126
*1628 FILLER_23_133
*1629 FILLER_23_140
*1630 FILLER_23_147
*1631 FILLER_23_154