*SPEF "ieee 1481-1999"
*DESIGN "tt_um_dlmiles_bad_synchronizer"
*DATE "02:06:46 Sunday November 03, 2024"
*VENDOR "The OpenROAD Project"
*PROGRAM "OpenROAD"
*VERSION "v2.0-16649-g40811f37f"
*DESIGN_FLOW "NAME_SCOPE LOCAL" "PIN_CAP NONE"
*DIVIDER /
*DELIMITER :
*BUS_DELIMITER []
*T_UNIT 1 NS
*C_UNIT 1 PF
*R_UNIT 1 OHM
*L_UNIT 1 HENRY

*NAME_MAP
*1 _00_
*2 _01_
*3 _02_
*4 _03_
*5 _04_
*6 _05_
*7 _06_
*8 _07_
*9 _08_
*10 _09_
*11 _10_
*12 _11_
*13 _12_
*14 _13_
*15 clknet_0_clk
*16 net20
*17 clk
*18 ena
*19 rst_n
*20 skew
*21 ui_in[0]
*22 ui_in[1]
*23 ui_in[2]
*24 ui_in[3]
*25 ui_in[4]
*26 ui_in[5]
*27 ui_in[6]
*28 ui_in[7]
*29 uio_in[0]
*30 uio_in[1]
*31 uio_in[2]
*32 uio_in[3]
*33 uio_in[4]
*34 uio_in[5]
*35 uio_in[6]
*36 uio_in[7]
*37 uio_oe[0]
*38 uio_oe[1]
*39 uio_oe[2]
*40 uio_oe[3]
*41 uio_oe[4]
*42 uio_oe[5]
*43 uio_oe[6]
*44 uio_oe[7]
*45 uio_out[0]
*46 uio_out[1]
*47 uio_out[2]
*48 uio_out[3]
*49 uio_out[4]
*50 uio_out[5]
*51 uio_out[6]
*52 uio_out[7]
*53 uo_out[0]
*54 uo_out[1]
*55 uo_out[2]
*56 uo_out[3]
*57 uo_out[4]
*58 uo_out[5]
*59 uo_out[6]
*60 uo_out[7]
*63 net1
*64 net2
*65 net3
*66 net4
*67 net5
*68 net6
*69 net7
*70 net8
*71 net9
*72 net10
*73 net11
*74 net12
*75 net13
*76 net14
*77 net15
*78 net16
*79 net17
*80 net18
*81 net19
*82 net21
*83 net22
*84 net23
*85 net24
*86 net25
*87 net26
*88 net27
*89 clknet_1_0__leaf_clk
*90 clknet_1_1__leaf_clk
*91 _16_
*92 _17_
*93 _18_
*94 _19_
*95 _20_
*96 clkbuf_0_clk
*97 _23__20
*98 _23_
*99 _24_
*100 _25_
*101 _26_
*102 _27_
*103 _28_
*104 _29_
*105 _30_
*106 _31_
*107 _32_
*108 _33_
*109 _34_
*110 _35_
*111 _36_
*112 _37_
*113 _38_
*114 skew\$_DFF_PN0_
*115 stage1\[0\]\$_DFF_PN0_
*116 stage1\[1\]\$_DFF_PN0_
*117 stage1\[2\]\$_DFF_PN0_
*118 stage1\[3\]\$_DFF_PN0_
*119 stage2\[0\]\$_DFF_PN0_
*120 stage2\[1\]\$_DFF_PN0_
*121 stage2\[2\]\$_DFF_PN0_
*122 stage2\[3\]\$_DFF_PN0_
*123 input1
*124 input2
*125 output3
*126 output4
*127 output5
*128 output6
*129 output7
*130 output8
*131 output9
*132 output10
*133 output11
*134 fanout12
*135 _31__13
*136 _32__14
*137 _33__15
*138 _34__16
*139 _36__17
*140 _37__18
*141 _38__19
*142 _24__21
*143 _25__22
*144 _26__23
*145 _27__24
*146 _28__25
*147 _29__26
*148 _30__27
*149 clkbuf_1_0__f_clk
*150 clkbuf_1_1__f_clk
*151 clkload0
*152 FILLER_0_0
*153 FILLER_0_7
*154 FILLER_0_14
*155 FILLER_0_21
*156 FILLER_0_28
*157 FILLER_0_35
*158 FILLER_0_42
*159 FILLER_0_49
*160 FILLER_0_56
*161 FILLER_0_63
*162 FILLER_0_70
*163 FILLER_0_77
*164 FILLER_0_84
*165 FILLER_0_91
*166 FILLER_0_98
*167 FILLER_0_105
*168 FILLER_0_112
*169 FILLER_0_119
*170 FILLER_0_126
*171 FILLER_0_133
*172 FILLER_0_140
*173 FILLER_0_147
*174 FILLER_0_154
*175 FILLER_0_161
*176 FILLER_0_168
*177 FILLER_0_175
*178 FILLER_0_182
*179 FILLER_0_189
*180 FILLER_0_196
*181 FILLER_0_203
*182 FILLER_0_210
*183 FILLER_0_217
*184 FILLER_0_224
*185 FILLER_0_231
*186 FILLER_0_238
*187 FILLER_0_245
*188 FILLER_0_252
*189 FILLER_0_259
*190 FILLER_0_266
*191 FILLER_0_273
*192 FILLER_0_280
*193 FILLER_0_287
*194 FILLER_0_294
*195 FILLER_0_301
*196 FILLER_0_308
*197 FILLER_0_315
*198 FILLER_0_322
*199 FILLER_0_329
*200 FILLER_0_336
*201 FILLER_0_343
*202 FILLER_0_350
*203 FILLER_0_357
*204 FILLER_0_364
*205 FILLER_0_371
*206 FILLER_0_378
*207 FILLER_0_385
*208 FILLER_0_392
*209 FILLER_0_399
*210 FILLER_0_406
*211 FILLER_0_413
*212 FILLER_0_420
*213 FILLER_0_427
*214 FILLER_0_429
*215 FILLER_1_0
*216 FILLER_1_7
*217 FILLER_1_14
*218 FILLER_1_21
*219 FILLER_1_28
*220 FILLER_1_35
*221 FILLER_1_42
*222 FILLER_1_49
*223 FILLER_1_56
*224 FILLER_1_63
*225 FILLER_1_70
*226 FILLER_1_77
*227 FILLER_1_84
*228 FILLER_1_91
*229 FILLER_1_98
*230 FILLER_1_105
*231 FILLER_1_112
*232 FILLER_1_119
*233 FILLER_1_126
*234 FILLER_1_133
*235 FILLER_1_140
*236 FILLER_1_147
*237 FILLER_1_154
*238 FILLER_1_161
*239 FILLER_1_168
*240 FILLER_1_175
*241 FILLER_1_182
*242 FILLER_1_189
*243 FILLER_1_196
*244 FILLER_1_203
*245 FILLER_1_210
*246 FILLER_1_217
*247 FILLER_1_224
*248 FILLER_1_231
*249 FILLER_1_238
*250 FILLER_1_245
*251 FILLER_1_252
*252 FILLER_1_259
*253 FILLER_1_266
*254 FILLER_1_273
*255 FILLER_1_280
*256 FILLER_1_287
*257 FILLER_1_294
*258 FILLER_1_301
*259 FILLER_1_308
*260 FILLER_1_315
*261 FILLER_1_322
*262 FILLER_1_329
*263 FILLER_1_336
*264 FILLER_1_343
*265 FILLER_1_350
*266 FILLER_1_357
*267 FILLER_1_364
*268 FILLER_1_371
*269 FILLER_1_378
*270 FILLER_1_385
*271 FILLER_1_392
*272 FILLER_1_399
*273 FILLER_1_406
*274 FILLER_1_413
*275 FILLER_1_420
*276 FILLER_1_427
*277 FILLER_1_429
*278 FILLER_2_0
*279 FILLER_2_7
*280 FILLER_2_14
*281 FILLER_2_21
*282 FILLER_2_28
*283 FILLER_2_35
*284 FILLER_2_42
*285 FILLER_2_49
*286 FILLER_2_56
*287 FILLER_2_63
*288 FILLER_2_70
*289 FILLER_2_77
*290 FILLER_2_84
*291 FILLER_2_91
*292 FILLER_2_98
*293 FILLER_2_105
*294 FILLER_2_112
*295 FILLER_2_119
*296 FILLER_2_126
*297 FILLER_2_133
*298 FILLER_2_140
*299 FILLER_2_147
*300 FILLER_2_154
*301 FILLER_2_161
*302 FILLER_2_168
*303 FILLER_2_175
*304 FILLER_2_182
*305 FILLER_2_189
*306 FILLER_2_196
*307 FILLER_2_203
*308 FILLER_2_210
*309 FILLER_2_217
*310 FILLER_2_224
*311 FILLER_2_231
*312 FILLER_2_238
*313 FILLER_2_245
*314 FILLER_2_252
*315 FILLER_2_259
*316 FILLER_2_266
*317 FILLER_2_273
*318 FILLER_2_280
*319 FILLER_2_287
*320 FILLER_2_294
*321 FILLER_2_301
*322 FILLER_2_308
*323 FILLER_2_315
*324 FILLER_2_322
*325 FILLER_2_329
*326 FILLER_2_336
*327 FILLER_2_343
*328 FILLER_2_350
*329 FILLER_2_357
*330 FILLER_2_364
*331 FILLER_2_371
*332 FILLER_2_378
*333 FILLER_2_385
*334 FILLER_2_392
*335 FILLER_2_399
*336 FILLER_2_406
*337 FILLER_2_413
*338 FILLER_2_420
*339 FILLER_2_427
*340 FILLER_2_429
*341 FILLER_3_0
*342 FILLER_3_7
*343 FILLER_3_14
*344 FILLER_3_21
*345 FILLER_3_28
*346 FILLER_3_35
*347 FILLER_3_42
*348 FILLER_3_49
*349 FILLER_3_56
*350 FILLER_3_63
*351 FILLER_3_70
*352 FILLER_3_77
*353 FILLER_3_84
*354 FILLER_3_91
*355 FILLER_3_98
*356 FILLER_3_105
*357 FILLER_3_112
*358 FILLER_3_119
*359 FILLER_3_126
*360 FILLER_3_133
*361 FILLER_3_140
*362 FILLER_3_147
*363 FILLER_3_154
*364 FILLER_3_161
*365 FILLER_3_168
*366 FILLER_3_175
*367 FILLER_3_182
*368 FILLER_3_189
*369 FILLER_3_196
*370 FILLER_3_203
*371 FILLER_3_210
*372 FILLER_3_217
*373 FILLER_3_224
*374 FILLER_3_231
*375 FILLER_3_238
*376 FILLER_3_245
*377 FILLER_3_252
*378 FILLER_3_259
*379 FILLER_3_266
*380 FILLER_3_273
*381 FILLER_3_280
*382 FILLER_3_287
*383 FILLER_3_294
*384 FILLER_3_301
*385 FILLER_3_308
*386 FILLER_3_315
*387 FILLER_3_322
*388 FILLER_3_329
*389 FILLER_3_336
*390 FILLER_3_343
*391 FILLER_3_350
*392 FILLER_3_357
*393 FILLER_3_364
*394 FILLER_3_371
*395 FILLER_3_378
*396 FILLER_3_385
*397 FILLER_3_392
*398 FILLER_3_399
*399 FILLER_3_406
*400 FILLER_3_413
*401 FILLER_3_420
*402 FILLER_3_427
*403 FILLER_3_429
*404 FILLER_4_0
*405 FILLER_4_7
*406 FILLER_4_14
*407 FILLER_4_21
*408 FILLER_4_28
*409 FILLER_4_35
*410 FILLER_4_42
*411 FILLER_4_49
*412 FILLER_4_56
*413 FILLER_4_63
*414 FILLER_4_70
*415 FILLER_4_77
*416 FILLER_4_84
*417 FILLER_4_91
*418 FILLER_4_98
*419 FILLER_4_105
*420 FILLER_4_112
*421 FILLER_4_119
*422 FILLER_4_126
*423 FILLER_4_133
*424 FILLER_4_140
*425 FILLER_4_147
*426 FILLER_4_154
*427 FILLER_4_161
*428 FILLER_4_168
*429 FILLER_4_175
*430 FILLER_4_182
*431 FILLER_4_189
*432 FILLER_4_196
*433 FILLER_4_203
*434 FILLER_4_210
*435 FILLER_4_217
*436 FILLER_4_224
*437 FILLER_4_231
*438 FILLER_4_238
*439 FILLER_4_245
*440 FILLER_4_252
*441 FILLER_4_259
*442 FILLER_4_266
*443 FILLER_4_273
*444 FILLER_4_280
*445 FILLER_4_287
*446 FILLER_4_294
*447 FILLER_4_301
*448 FILLER_4_308
*449 FILLER_4_315
*450 FILLER_4_322
*451 FILLER_4_329
*452 FILLER_4_336
*453 FILLER_4_343
*454 FILLER_4_350
*455 FILLER_4_357
*456 FILLER_4_364
*457 FILLER_4_371
*458 FILLER_4_378
*459 FILLER_4_385
*460 FILLER_4_392
*461 FILLER_4_399
*462 FILLER_4_406
*463 FILLER_4_413
*464 FILLER_4_420
*465 FILLER_4_427
*466 FILLER_4_429
*467 FILLER_5_0
*468 FILLER_5_7
*469 FILLER_5_14
*470 FILLER_5_21
*471 FILLER_5_28
*472 FILLER_5_35
*473 FILLER_5_42
*474 FILLER_5_49
*475 FILLER_5_56
*476 FILLER_5_63
*477 FILLER_5_70
*478 FILLER_5_77
*479 FILLER_5_84
*480 FILLER_5_91
*481 FILLER_5_98
*482 FILLER_5_105
*483 FILLER_5_112
*484 FILLER_5_119
*485 FILLER_5_126
*486 FILLER_5_133
*487 FILLER_5_140
*488 FILLER_5_147
*489 FILLER_5_154
*490 FILLER_5_161
*491 FILLER_5_168
*492 FILLER_5_175
*493 FILLER_5_182
*494 FILLER_5_189
*495 FILLER_5_196
*496 FILLER_5_203
*497 FILLER_5_210
*498 FILLER_5_217
*499 FILLER_5_224
*500 FILLER_5_231
*501 FILLER_5_238
*502 FILLER_5_245
*503 FILLER_5_252
*504 FILLER_5_259
*505 FILLER_5_266
*506 FILLER_5_273
*507 FILLER_5_280
*508 FILLER_5_287
*509 FILLER_5_294
*510 FILLER_5_301
*511 FILLER_5_308
*512 FILLER_5_315
*513 FILLER_5_322
*514 FILLER_5_329
*515 FILLER_5_336
*516 FILLER_5_343
*517 FILLER_5_350
*518 FILLER_5_357
*519 FILLER_5_364
*520 FILLER_5_371
*521 FILLER_5_378
*522 FILLER_5_385
*523 FILLER_5_392
*524 FILLER_5_399
*525 FILLER_5_406
*526 FILLER_5_413
*527 FILLER_5_420
*528 FILLER_5_427
*529 FILLER_5_429
*530 FILLER_6_0
*531 FILLER_6_7
*532 FILLER_6_14
*533 FILLER_6_21
*534 FILLER_6_28
*535 FILLER_6_35
*536 FILLER_6_42
*537 FILLER_6_49
*538 FILLER_6_56
*539 FILLER_6_63
*540 FILLER_6_70
*541 FILLER_6_77
*542 FILLER_6_84
*543 FILLER_6_91
*544 FILLER_6_98
*545 FILLER_6_105
*546 FILLER_6_112
*547 FILLER_6_119
*548 FILLER_6_126
*549 FILLER_6_133
*550 FILLER_6_140
*551 FILLER_6_147
*552 FILLER_6_154
*553 FILLER_6_161
*554 FILLER_6_168
*555 FILLER_6_175
*556 FILLER_6_182
*557 FILLER_6_189
*558 FILLER_6_196
*559 FILLER_6_203
*560 FILLER_6_210
*561 FILLER_6_217
*562 FILLER_6_224
*563 FILLER_6_231
*564 FILLER_6_238
*565 FILLER_6_245
*566 FILLER_6_252
*567 FILLER_6_259
*568 FILLER_6_266
*569 FILLER_6_273
*570 FILLER_6_280
*571 FILLER_6_287
*572 FILLER_6_294
*573 FILLER_6_301
*574 FILLER_6_308
*575 FILLER_6_315
*576 FILLER_6_322
*577 FILLER_6_329
*578 FILLER_6_336
*579 FILLER_6_343
*580 FILLER_6_350
*581 FILLER_6_357
*582 FILLER_6_364
*583 FILLER_6_371
*584 FILLER_6_378
*585 FILLER_6_385
*586 FILLER_6_392
*587 FILLER_6_399
*588 FILLER_6_406
*589 FILLER_6_413
*590 FILLER_6_420
*591 FILLER_6_427
*592 FILLER_6_429
*593 FILLER_7_0
*594 FILLER_7_7
*595 FILLER_7_14
*596 FILLER_7_21
*597 FILLER_7_28
*598 FILLER_7_35
*599 FILLER_7_42
*600 FILLER_7_49
*601 FILLER_7_56
*602 FILLER_7_63
*603 FILLER_7_70
*604 FILLER_7_77
*605 FILLER_7_84
*606 FILLER_7_91
*607 FILLER_7_98
*608 FILLER_7_105
*609 FILLER_7_112
*610 FILLER_7_119
*611 FILLER_7_126
*612 FILLER_7_133
*613 FILLER_7_140
*614 FILLER_7_147
*615 FILLER_7_154
*616 FILLER_7_161
*617 FILLER_7_168
*618 FILLER_7_175
*619 FILLER_7_182
*620 FILLER_7_189
*621 FILLER_7_196
*622 FILLER_7_203
*623 FILLER_7_210
*624 FILLER_7_217
*625 FILLER_7_224
*626 FILLER_7_231
*627 FILLER_7_238
*628 FILLER_7_245
*629 FILLER_7_252
*630 FILLER_7_259
*631 FILLER_7_266
*632 FILLER_7_273
*633 FILLER_7_280
*634 FILLER_7_287
*635 FILLER_7_294
*636 FILLER_7_301
*637 FILLER_7_308
*638 FILLER_7_315
*639 FILLER_7_322
*640 FILLER_7_329
*641 FILLER_7_336
*642 FILLER_7_343
*643 FILLER_7_350
*644 FILLER_7_357
*645 FILLER_7_364
*646 FILLER_7_371
*647 FILLER_7_378
*648 FILLER_7_385
*649 FILLER_7_392
*650 FILLER_7_399
*651 FILLER_7_406
*652 FILLER_7_413
*653 FILLER_7_420
*654 FILLER_7_427
*655 FILLER_7_429
*656 FILLER_8_0
*657 FILLER_8_7
*658 FILLER_8_14
*659 FILLER_8_21
*660 FILLER_8_28
*661 FILLER_8_35
*662 FILLER_8_42
*663 FILLER_8_49
*664 FILLER_8_56
*665 FILLER_8_63
*666 FILLER_8_70
*667 FILLER_8_77
*668 FILLER_8_84
*669 FILLER_8_91
*670 FILLER_8_98
*671 FILLER_8_105
*672 FILLER_8_112
*673 FILLER_8_119
*674 FILLER_8_126
*675 FILLER_8_133
*676 FILLER_8_140
*677 FILLER_8_147
*678 FILLER_8_154
*679 FILLER_8_161
*680 FILLER_8_168
*681 FILLER_8_175
*682 FILLER_8_182
*683 FILLER_8_189
*684 FILLER_8_196
*685 FILLER_8_203
*686 FILLER_8_210
*687 FILLER_8_217
*688 FILLER_8_224
*689 FILLER_8_231
*690 FILLER_8_238
*691 FILLER_8_245
*692 FILLER_8_252
*693 FILLER_8_259
*694 FILLER_8_266
*695 FILLER_8_273
*696 FILLER_8_280
*697 FILLER_8_287
*698 FILLER_8_294
*699 FILLER_8_301
*700 FILLER_8_308
*701 FILLER_8_315
*702 FILLER_8_322
*703 FILLER_8_329
*704 FILLER_8_336
*705 FILLER_8_343
*706 FILLER_8_350
*707 FILLER_8_357
*708 FILLER_8_364
*709 FILLER_8_371
*710 FILLER_8_378
*711 FILLER_8_385
*712 FILLER_8_392
*713 FILLER_8_399
*714 FILLER_8_406
*715 FILLER_8_413
*716 FILLER_8_420
*717 FILLER_8_427
*718 FILLER_8_429
*719 FILLER_9_0
*720 FILLER_9_7
*721 FILLER_9_14
*722 FILLER_9_21
*723 FILLER_9_28
*724 FILLER_9_35
*725 FILLER_9_42
*726 FILLER_9_49
*727 FILLER_9_56
*728 FILLER_9_63
*729 FILLER_9_70
*730 FILLER_9_77
*731 FILLER_9_84
*732 FILLER_9_91
*733 FILLER_9_98
*734 FILLER_9_105
*735 FILLER_9_112
*736 FILLER_9_119
*737 FILLER_9_126
*738 FILLER_9_133
*739 FILLER_9_140
*740 FILLER_9_147
*741 FILLER_9_154
*742 FILLER_9_161
*743 FILLER_9_168
*744 FILLER_9_175
*745 FILLER_9_182
*746 FILLER_9_189
*747 FILLER_9_196
*748 FILLER_9_203
*749 FILLER_9_210
*750 FILLER_9_217
*751 FILLER_9_224
*752 FILLER_9_231
*753 FILLER_9_238
*754 FILLER_9_245
*755 FILLER_9_252
*756 FILLER_9_259
*757 FILLER_9_266
*758 FILLER_9_273
*759 FILLER_9_280
*760 FILLER_9_287
*761 FILLER_9_294
*762 FILLER_9_301
*763 FILLER_9_308
*764 FILLER_9_315
*765 FILLER_9_322
*766 FILLER_9_329
*767 FILLER_9_336
*768 FILLER_9_343
*769 FILLER_9_350
*770 FILLER_9_357
*771 FILLER_9_364
*772 FILLER_9_371
*773 FILLER_9_378
*774 FILLER_9_385
*775 FILLER_9_392
*776 FILLER_9_399
*777 FILLER_9_406
*778 FILLER_9_413
*779 FILLER_9_420
*780 FILLER_9_427
*781 FILLER_9_429
*782 FILLER_10_0
*783 FILLER_10_7
*784 FILLER_10_14
*785 FILLER_10_21
*786 FILLER_10_28
*787 FILLER_10_35
*788 FILLER_10_42
*789 FILLER_10_49
*790 FILLER_10_56
*791 FILLER_10_63
*792 FILLER_10_70
*793 FILLER_10_77
*794 FILLER_10_84
*795 FILLER_10_91
*796 FILLER_10_98
*797 FILLER_10_105
*798 FILLER_10_112
*799 FILLER_10_119
*800 FILLER_10_126
*801 FILLER_10_133
*802 FILLER_10_140
*803 FILLER_10_147
*804 FILLER_10_154
*805 FILLER_10_161
*806 FILLER_10_168
*807 FILLER_10_175
*808 FILLER_10_182
*809 FILLER_10_189
*810 FILLER_10_196
*811 FILLER_10_203
*812 FILLER_10_210
*813 FILLER_10_217
*814 FILLER_10_224
*815 FILLER_10_231
*816 FILLER_10_238
*817 FILLER_10_245
*818 FILLER_10_252
*819 FILLER_10_259
*820 FILLER_10_266
*821 FILLER_10_273
*822 FILLER_10_280
*823 FILLER_10_287
*824 FILLER_10_294
*825 FILLER_10_301
*826 FILLER_10_308
*827 FILLER_10_315
*828 FILLER_10_322
*829 FILLER_10_329
*830 FILLER_10_336
*831 FILLER_10_343
*832 FILLER_10_350
*833 FILLER_10_357
*834 FILLER_10_364
*835 FILLER_10_371
*836 FILLER_10_378
*837 FILLER_10_385
*838 FILLER_10_392
*839 FILLER_10_399
*840 FILLER_10_406
*841 FILLER_10_413
*842 FILLER_10_420
*843 FILLER_10_427
*844 FILLER_10_429
*845 FILLER_11_0
*846 FILLER_11_7
*847 FILLER_11_14
*848 FILLER_11_21
*849 FILLER_11_28
*850 FILLER_11_35
*851 FILLER_11_42
*852 FILLER_11_49
*853 FILLER_11_56
*854 FILLER_11_63
*855 FILLER_11_70
*856 FILLER_11_77
*857 FILLER_11_84
*858 FILLER_11_91
*859 FILLER_11_98
*860 FILLER_11_105
*861 FILLER_11_112
*862 FILLER_11_119
*863 FILLER_11_126
*864 FILLER_11_133
*865 FILLER_11_140
*866 FILLER_11_147
*867 FILLER_11_154
*868 FILLER_11_161
*869 FILLER_11_168
*870 FILLER_11_175
*871 FILLER_11_182
*872 FILLER_11_189
*873 FILLER_11_196
*874 FILLER_11_203
*875 FILLER_11_210
*876 FILLER_11_217
*877 FILLER_11_224
*878 FILLER_11_231
*879 FILLER_11_238
*880 FILLER_11_245
*881 FILLER_11_252
*882 FILLER_11_259
*883 FILLER_11_266
*884 FILLER_11_273
*885 FILLER_11_280
*886 FILLER_11_287
*887 FILLER_11_294
*888 FILLER_11_301
*889 FILLER_11_308
*890 FILLER_11_315
*891 FILLER_11_322
*892 FILLER_11_329
*893 FILLER_11_336
*894 FILLER_11_343
*895 FILLER_11_350
*896 FILLER_11_357
*897 FILLER_11_364
*898 FILLER_11_371
*899 FILLER_11_378
*900 FILLER_11_385
*901 FILLER_11_392
*902 FILLER_11_399
*903 FILLER_11_406
*904 FILLER_11_413
*905 FILLER_11_420
*906 FILLER_11_427
*907 FILLER_11_429
*908 FILLER_12_0
*909 FILLER_12_7
*910 FILLER_12_14
*911 FILLER_12_21
*912 FILLER_12_28
*913 FILLER_12_35
*914 FILLER_12_42
*915 FILLER_12_49
*916 FILLER_12_56
*917 FILLER_12_63
*918 FILLER_12_70
*919 FILLER_12_77
*920 FILLER_12_84
*921 FILLER_12_91
*922 FILLER_12_98
*923 FILLER_12_105
*924 FILLER_12_112
*925 FILLER_12_119
*926 FILLER_12_126
*927 FILLER_12_133
*928 FILLER_12_140
*929 FILLER_12_147
*930 FILLER_12_154
*931 FILLER_12_161
*932 FILLER_12_168
*933 FILLER_12_175
*934 FILLER_12_182
*935 FILLER_12_189
*936 FILLER_12_196
*937 FILLER_12_203
*938 FILLER_12_210
*939 FILLER_12_217
*940 FILLER_12_224
*941 FILLER_12_231
*942 FILLER_12_238
*943 FILLER_12_245
*944 FILLER_12_252
*945 FILLER_12_259
*946 FILLER_12_266
*947 FILLER_12_273
*948 FILLER_12_280
*949 FILLER_12_287
*950 FILLER_12_294
*951 FILLER_12_301
*952 FILLER_12_308
*953 FILLER_12_315
*954 FILLER_12_322
*955 FILLER_12_329
*956 FILLER_12_336
*957 FILLER_12_343
*958 FILLER_12_350
*959 FILLER_12_357
*960 FILLER_12_364
*961 FILLER_12_371
*962 FILLER_12_378
*963 FILLER_12_385
*964 FILLER_12_392
*965 FILLER_12_399
*966 FILLER_12_406
*967 FILLER_12_413
*968 FILLER_12_420
*969 FILLER_12_427
*970 FILLER_12_429
*971 FILLER_13_0
*972 FILLER_13_7
*973 FILLER_13_14
*974 FILLER_13_21
*975 FILLER_13_28
*976 FILLER_13_35
*977 FILLER_13_42
*978 FILLER_13_49
*979 FILLER_13_56
*980 FILLER_13_63
*981 FILLER_13_70
*982 FILLER_13_77
*983 FILLER_13_84
*984 FILLER_13_91
*985 FILLER_13_98
*986 FILLER_13_105
*987 FILLER_13_112
*988 FILLER_13_119
*989 FILLER_13_126
*990 FILLER_13_133
*991 FILLER_13_140
*992 FILLER_13_147
*993 FILLER_13_154
*994 FILLER_13_161
*995 FILLER_13_168
*996 FILLER_13_175
*997 FILLER_13_182
*998 FILLER_13_189
*999 FILLER_13_196
*1000 FILLER_13_203
*1001 FILLER_13_210
*1002 FILLER_13_217
*1003 FILLER_13_224
*1004 FILLER_13_231
*1005 FILLER_13_238
*1006 FILLER_13_245
*1007 FILLER_13_252
*1008 FILLER_13_259
*1009 FILLER_13_266
*1010 FILLER_13_273
*1011 FILLER_13_280
*1012 FILLER_13_287
*1013 FILLER_13_294
*1014 FILLER_13_301
*1015 FILLER_13_308
*1016 FILLER_13_315
*1017 FILLER_13_322
*1018 FILLER_13_329
*1019 FILLER_13_336
*1020 FILLER_13_343
*1021 FILLER_13_350
*1022 FILLER_13_357
*1023 FILLER_13_364
*1024 FILLER_13_371
*1025 FILLER_13_378
*1026 FILLER_13_385
*1027 FILLER_13_392
*1028 FILLER_13_399
*1029 FILLER_13_406
*1030 FILLER_13_413
*1031 FILLER_13_420
*1032 FILLER_13_427
*1033 FILLER_13_429
*1034 FILLER_14_0
*1035 FILLER_14_7
*1036 FILLER_14_14
*1037 FILLER_14_21
*1038 FILLER_14_28
*1039 FILLER_14_35
*1040 FILLER_14_42
*1041 FILLER_14_49
*1042 FILLER_14_56
*1043 FILLER_14_63
*1044 FILLER_14_70
*1045 FILLER_14_77
*1046 FILLER_14_84
*1047 FILLER_14_91
*1048 FILLER_14_98
*1049 FILLER_14_105
*1050 FILLER_14_112
*1051 FILLER_14_119
*1052 FILLER_14_126
*1053 FILLER_14_133
*1054 FILLER_14_140
*1055 FILLER_14_147
*1056 FILLER_14_154
*1057 FILLER_14_161
*1058 FILLER_14_168
*1059 FILLER_14_175
*1060 FILLER_14_182
*1061 FILLER_14_189
*1062 FILLER_14_196
*1063 FILLER_14_203
*1064 FILLER_14_210
*1065 FILLER_14_217
*1066 FILLER_14_224
*1067 FILLER_14_231
*1068 FILLER_14_238
*1069 FILLER_14_245
*1070 FILLER_14_252
*1071 FILLER_14_259
*1072 FILLER_14_266
*1073 FILLER_14_273
*1074 FILLER_14_280
*1075 FILLER_14_287
*1076 FILLER_14_294
*1077 FILLER_14_301
*1078 FILLER_14_308
*1079 FILLER_14_315
*1080 FILLER_14_322
*1081 FILLER_14_329
*1082 FILLER_14_336
*1083 FILLER_14_343
*1084 FILLER_14_350
*1085 FILLER_14_357
*1086 FILLER_14_364
*1087 FILLER_14_371
*1088 FILLER_14_378
*1089 FILLER_14_385
*1090 FILLER_14_392
*1091 FILLER_14_399
*1092 FILLER_14_406
*1093 FILLER_14_413
*1094 FILLER_14_420
*1095 FILLER_14_427
*1096 FILLER_14_429
*1097 FILLER_15_0
*1098 FILLER_15_7
*1099 FILLER_15_14
*1100 FILLER_15_21
*1101 FILLER_15_28
*1102 FILLER_15_35
*1103 FILLER_15_42
*1104 FILLER_15_49
*1105 FILLER_15_56
*1106 FILLER_15_63
*1107 FILLER_15_70
*1108 FILLER_15_77
*1109 FILLER_15_84
*1110 FILLER_15_91
*1111 FILLER_15_98
*1112 FILLER_15_105
*1113 FILLER_15_112
*1114 FILLER_15_119
*1115 FILLER_15_126
*1116 FILLER_15_133
*1117 FILLER_15_140
*1118 FILLER_15_147
*1119 FILLER_15_154
*1120 FILLER_15_161
*1121 FILLER_15_168
*1122 FILLER_15_175
*1123 FILLER_15_182
*1124 FILLER_15_189
*1125 FILLER_15_196
*1126 FILLER_15_203
*1127 FILLER_15_210
*1128 FILLER_15_217
*1129 FILLER_15_224
*1130 FILLER_15_231
*1131 FILLER_15_238
*1132 FILLER_15_245
*1133 FILLER_15_252
*1134 FILLER_15_259
*1135 FILLER_15_266
*1136 FILLER_15_273
*1137 FILLER_15_280
*1138 FILLER_15_287
*1139 FILLER_15_294
*1140 FILLER_15_301
*1141 FILLER_15_308
*1142 FILLER_15_315
*1143 FILLER_15_322
*1144 FILLER_15_329
*1145 FILLER_15_336
*1146 FILLER_15_343
*1147 FILLER_15_350
*1148 FILLER_15_357
*1149 FILLER_15_364
*1150 FILLER_15_371
*1151 FILLER_15_378
*1152 FILLER_15_385
*1153 FILLER_15_392
*1154 FILLER_15_399
*1155 FILLER_15_406
*1156 FILLER_15_413
*1157 FILLER_15_420
*1158 FILLER_15_427
*1159 FILLER_15_429
*1160 FILLER_16_0
*1161 FILLER_16_7
*1162 FILLER_16_14
*1163 FILLER_16_21
*1164 FILLER_16_28
*1165 FILLER_16_35
*1166 FILLER_16_42
*1167 FILLER_16_49
*1168 FILLER_16_56
*1169 FILLER_16_63
*1170 FILLER_16_70
*1171 FILLER_16_77
*1172 FILLER_16_84
*1173 FILLER_16_91
*1174 FILLER_16_98
*1175 FILLER_16_105
*1176 FILLER_16_112
*1177 FILLER_16_119
*1178 FILLER_16_126
*1179 FILLER_16_133
*1180 FILLER_16_140
*1181 FILLER_16_147
*1182 FILLER_16_154
*1183 FILLER_16_161
*1184 FILLER_16_168
*1185 FILLER_16_175
*1186 FILLER_16_182
*1187 FILLER_16_189
*1188 FILLER_16_196
*1189 FILLER_16_203
*1190 FILLER_16_210
*1191 FILLER_16_217
*1192 FILLER_16_224
*1193 FILLER_16_231
*1194 FILLER_16_238
*1195 FILLER_16_245
*1196 FILLER_16_252
*1197 FILLER_16_259
*1198 FILLER_16_266
*1199 FILLER_16_273
*1200 FILLER_16_280
*1201 FILLER_16_287
*1202 FILLER_16_294
*1203 FILLER_16_301
*1204 FILLER_16_308
*1205 FILLER_16_315
*1206 FILLER_16_322
*1207 FILLER_16_329
*1208 FILLER_16_336
*1209 FILLER_16_343
*1210 FILLER_16_350
*1211 FILLER_16_357
*1212 FILLER_16_364
*1213 FILLER_16_371
*1214 FILLER_16_378
*1215 FILLER_16_385
*1216 FILLER_16_392
*1217 FILLER_16_399
*1218 FILLER_16_406
*1219 FILLER_16_413
*1220 FILLER_16_420
*1221 FILLER_16_427
*1222 FILLER_16_429
*1223 FILLER_17_0
*1224 FILLER_17_7
*1225 FILLER_17_14
*1226 FILLER_17_21
*1227 FILLER_17_28
*1228 FILLER_17_35
*1229 FILLER_17_42
*1230 FILLER_17_49
*1231 FILLER_17_56
*1232 FILLER_17_63
*1233 FILLER_17_70
*1234 FILLER_17_77
*1235 FILLER_17_84
*1236 FILLER_17_91
*1237 FILLER_17_98
*1238 FILLER_17_105
*1239 FILLER_17_112
*1240 FILLER_17_119
*1241 FILLER_17_126
*1242 FILLER_17_133
*1243 FILLER_17_140
*1244 FILLER_17_147
*1245 FILLER_17_154
*1246 FILLER_17_161
*1247 FILLER_17_168
*1248 FILLER_17_175
*1249 FILLER_17_182
*1250 FILLER_17_189
*1251 FILLER_17_196
*1252 FILLER_17_203
*1253 FILLER_17_210
*1254 FILLER_17_217
*1255 FILLER_17_224
*1256 FILLER_17_231
*1257 FILLER_17_238
*1258 FILLER_17_245
*1259 FILLER_17_252
*1260 FILLER_17_259
*1261 FILLER_17_266
*1262 FILLER_17_273
*1263 FILLER_17_280
*1264 FILLER_17_287
*1265 FILLER_17_294
*1266 FILLER_17_301
*1267 FILLER_17_308
*1268 FILLER_17_315
*1269 FILLER_17_322
*1270 FILLER_17_329
*1271 FILLER_17_336
*1272 FILLER_17_343
*1273 FILLER_17_350
*1274 FILLER_17_357
*1275 FILLER_17_364
*1276 FILLER_17_371
*1277 FILLER_17_378
*1278 FILLER_17_385
*1279 FILLER_17_392
*1280 FILLER_17_399
*1281 FILLER_17_406
*1282 FILLER_17_413
*1283 FILLER_17_420
*1284 FILLER_17_427
*1285 FILLER_17_429
*1286 FILLER_18_0
*1287 FILLER_18_7
*1288 FILLER_18_14
*1289 FILLER_18_21
*1290 FILLER_18_28
*1291 FILLER_18_35
*1292 FILLER_18_42
*1293 FILLER_18_49
*1294 FILLER_18_56
*1295 FILLER_18_63
*1296 FILLER_18_70
*1297 FILLER_18_77
*1298 FILLER_18_84
*1299 FILLER_18_91
*1300 FILLER_18_98
*1301 FILLER_18_105
*1302 FILLER_18_112
*1303 FILLER_18_119
*1304 FILLER_18_126
*1305 FILLER_18_133
*1306 FILLER_18_140
*1307 FILLER_18_147
*1308 FILLER_18_154
*1309 FILLER_18_161
*1310 FILLER_18_168
*1311 FILLER_18_175
*1312 FILLER_18_182
*1313 FILLER_18_189
*1314 FILLER_18_196
*1315 FILLER_18_203
*1316 FILLER_18_210
*1317 FILLER_18_217
*1318 FILLER_18_224
*1319 FILLER_18_231
*1320 FILLER_18_238
*1321 FILLER_18_245
*1322 FILLER_18_252
*1323 FILLER_18_259
*1324 FILLER_18_266
*1325 FILLER_18_273
*1326 FILLER_18_280
*1327 FILLER_18_287
*1328 FILLER_18_294
*1329 FILLER_18_301
*1330 FILLER_18_308
*1331 FILLER_18_315
*1332 FILLER_18_322
*1333 FILLER_18_329
*1334 FILLER_18_336
*1335 FILLER_18_343
*1336 FILLER_18_350
*1337 FILLER_18_357
*1338 FILLER_18_364
*1339 FILLER_18_371
*1340 FILLER_18_378
*1341 FILLER_18_385
*1342 FILLER_18_392
*1343 FILLER_18_399
*1344 FILLER_18_406
*1345 FILLER_18_413
*1346 FILLER_18_420
*1347 FILLER_18_427
*1348 FILLER_18_429
*1349 FILLER_19_0
*1350 FILLER_19_7
*1351 FILLER_19_14
*1352 FILLER_19_21
*1353 FILLER_19_28
*1354 FILLER_19_35
*1355 FILLER_19_42
*1356 FILLER_19_49
*1357 FILLER_19_56
*1358 FILLER_19_63
*1359 FILLER_19_70
*1360 FILLER_19_77
*1361 FILLER_19_84
*1362 FILLER_19_91
*1363 FILLER_19_98
*1364 FILLER_19_105
*1365 FILLER_19_112
*1366 FILLER_19_119
*1367 FILLER_19_126
*1368 FILLER_19_133
*1369 FILLER_19_140
*1370 FILLER_19_147
*1371 FILLER_19_154
*1372 FILLER_19_161
*1373 FILLER_19_168
*1374 FILLER_19_175
*1375 FILLER_19_182
*1376 FILLER_19_189
*1377 FILLER_19_196
*1378 FILLER_19_203
*1379 FILLER_19_210
*1380 FILLER_19_217
*1381 FILLER_19_224
*1382 FILLER_19_231
*1383 FILLER_19_238
*1384 FILLER_19_245
*1385 FILLER_19_252
*1386 FILLER_19_259
*1387 FILLER_19_266
*1388 FILLER_19_273
*1389 FILLER_19_280
*1390 FILLER_19_287
*1391 FILLER_19_294
*1392 FILLER_19_301
*1393 FILLER_19_308
*1394 FILLER_19_315
*1395 FILLER_19_322
*1396 FILLER_19_329
*1397 FILLER_19_336
*1398 FILLER_19_343
*1399 FILLER_19_350
*1400 FILLER_19_357
*1401 FILLER_19_364
*1402 FILLER_19_371
*1403 FILLER_19_378
*1404 FILLER_19_385
*1405 FILLER_19_392
*1406 FILLER_19_399
*1407 FILLER_19_406
*1408 FILLER_19_413
*1409 FILLER_19_420
*1410 FILLER_19_427
*1411 FILLER_19_429
*1412 FILLER_20_0
*1413 FILLER_20_7
*1414 FILLER_20_14
*1415 FILLER_20_21
*1416 FILLER_20_28
*1417 FILLER_20_35
*1418 FILLER_20_42
*1419 FILLER_20_49
*1420 FILLER_20_56
*1421 FILLER_20_63
*1422 FILLER_20_70
*1423 FILLER_20_77
*1424 FILLER_20_84
*1425 FILLER_20_91
*1426 FILLER_20_98
*1427 FILLER_20_105
*1428 FILLER_20_112
*1429 FILLER_20_119
*1430 FILLER_20_126
*1431 FILLER_20_133
*1432 FILLER_20_140
*1433 FILLER_20_147
*1434 FILLER_20_154
*1435 FILLER_20_161
*1436 FILLER_20_168
*1437 FILLER_20_175
*1438 FILLER_20_182
*1439 FILLER_20_189
*1440 FILLER_20_196
*1441 FILLER_20_203
*1442 FILLER_20_210
*1443 FILLER_20_217
*1444 FILLER_20_224
*1445 FILLER_20_231
*1446 FILLER_20_238
*1447 FILLER_20_245
*1448 FILLER_20_252
*1449 FILLER_20_259
*1450 FILLER_20_266
*1451 FILLER_20_273
*1452 FILLER_20_280
*1453 FILLER_20_287
*1454 FILLER_20_294
*1455 FILLER_20_301
*1456 FILLER_20_308
*1457 FILLER_20_315
*1458 FILLER_20_322
*1459 FILLER_20_329
*1460 FILLER_20_336
*1461 FILLER_20_343
*1462 FILLER_20_350
*1463 FILLER_20_357
*1464 FILLER_20_364
*1465 FILLER_20_371
*1466 FILLER_20_378
*1467 FILLER_20_385
*1468 FILLER_20_392
*1469 FILLER_20_399
*1470 FILLER_20_406
*1471 FILLER_20_413
*1472 FILLER_20_420
*1473 FILLER_20_427
*1474 FILLER_20_429
*1475 FILLER_21_0
*1476 FILLER_21_7
*1477 FILLER_21_14
*1478 FILLER_21_21
*1479 FILLER_21_28
*1480 FILLER_21_35
*1481 FILLER_21_42
*1482 FILLER_21_49
*1483 FILLER_21_56
*1484 FILLER_21_63
*1485 FILLER_21_70
*1486 FILLER_21_77
*1487 FILLER_21_84
*1488 FILLER_21_91
*1489 FILLER_21_98
*1490 FILLER_21_105
*1491 FILLER_21_112
*1492 FILLER_21_119
*1493 FILLER_21_126
*1494 FILLER_21_133
*1495 FILLER_21_140
*1496 FILLER_21_147
*1497 FILLER_21_154
*1498 FILLER_21_161
*1499 FILLER_21_168
*1500 FILLER_21_175
*1501 FILLER_21_182
*1502 FILLER_21_189
*1503 FILLER_21_196
*1504 FILLER_21_203
*1505 FILLER_21_210
*1506 FILLER_21_217
*1507 FILLER_21_224
*1508 FILLER_21_231
*1509 FILLER_21_238
*1510 FILLER_21_245
*1511 FILLER_21_252
*1512 FILLER_21_259
*1513 FILLER_21_266
*1514 FILLER_21_273
*1515 FILLER_21_280
*1516 FILLER_21_287
*1517 FILLER_21_294
*1518 FILLER_21_301
*1519 FILLER_21_308
*1520 FILLER_21_315
*1521 FILLER_21_322
*1522 FILLER_21_329
*1523 FILLER_21_336
*1524 FILLER_21_343
*1525 FILLER_21_350
*1526 FILLER_21_357
*1527 FILLER_21_364
*1528 FILLER_21_371
*1529 FILLER_21_378
*1530 FILLER_21_385
*1531 FILLER_21_392
*1532 FILLER_21_399
*1533 FILLER_21_406
*1534 FILLER_21_413
*1535 FILLER_21_420
*1536 FILLER_21_427
*1537 FILLER_21_429
*1538 FILLER_22_0
*1539 FILLER_22_7
*1540 FILLER_22_14
*1541 FILLER_22_21
*1542 FILLER_22_28
*1543 FILLER_22_35
*1544 FILLER_22_42
*1545 FILLER_22_49
*1546 FILLER_22_56
*1547 FILLER_22_63
*1548 FILLER_22_70
*1549 FILLER_22_77
*1550 FILLER_22_84
*1551 FILLER_22_91
*1552 FILLER_22_98
*1553 FILLER_22_105
*1554 FILLER_22_112
*1555 FILLER_22_119
*1556 FILLER_22_126
*1557 FILLER_22_133
*1558 FILLER_22_140
*1559 FILLER_22_147
*1560 FILLER_22_154
*1561 FILLER_22_161
*1562 FILLER_22_168
*1563 FILLER_22_175
*1564 FILLER_22_182
*1565 FILLER_22_189
*1566 FILLER_22_196
*1567 FILLER_22_203
*1568 FILLER_22_210
*1569 FILLER_22_217
*1570 FILLER_22_224
*1571 FILLER_22_231
*1572 FILLER_22_238
*1573 FILLER_22_245
*1574 FILLER_22_252
*1575 FILLER_22_259
*1576 FILLER_22_266
*1577 FILLER_22_273
*1578 FILLER_22_280
*1579 FILLER_22_287
*1580 FILLER_22_294
*1581 FILLER_22_301
*1582 FILLER_22_308
*1583 FILLER_22_315
*1584 FILLER_22_322
*1585 FILLER_22_329
*1586 FILLER_22_336
*1587 FILLER_22_343
*1588 FILLER_22_350
*1589 FILLER_22_357
*1590 FILLER_22_364
*1591 FILLER_22_371
*1592 FILLER_22_378
*1593 FILLER_22_385
*1594 FILLER_22_392
*1595 FILLER_22_399
*1596 FILLER_22_406
*1597 FILLER_22_413
*1598 FILLER_22_420
*1599 FILLER_22_427
*1600 FILLER_22_429
*1601 FILLER_23_0
*1602 FILLER_23_7
*1603 FILLER_23_14
*1604 FILLER_23_21
*1605 FILLER_23_28
*1606 FILLER_23_35
*1607 FILLER_23_42
*1608 FILLER_23_49
*1609 FILLER_23_56
*1610 FILLER_23_63
*1611 FILLER_23_70
*1612 FILLER_23_77
*1613 FILLER_23_84
*1614 FILLER_23_91
*1615 FILLER_23_98
*1616 FILLER_23_105
*1617 FILLER_23_112
*1618 FILLER_23_119
*1619 FILLER_23_126
*1620 FILLER_23_133
*1621 FILLER_23_140
*1622 FILLER_23_147
*1623 FILLER_23_154
*1624 FILLER_23_161
*1625 FILLER_23_168
*1626 FILLER_23_175
*1627 FILLER_23_182
*1628 FILLER_23_189
*1629 FILLER_23_196
*1630 FILLER_23_203
*1631 FILLER_23_210
*1632 FILLER_23_217