*SPEF "ieee 1481-1999"
*DESIGN "tt_um_QIF_8bit"
*DATE "23:28:00 Friday November 01, 2024"
*VENDOR "The OpenROAD Project"
*PROGRAM "OpenROAD"
*VERSION "v2.0-16649-g40811f37f"
*DESIGN_FLOW "NAME_SCOPE LOCAL" "PIN_CAP NONE"
*DIVIDER /
*DELIMITER :
*BUS_DELIMITER []
*T_UNIT 1 NS
*C_UNIT 1 PF
*R_UNIT 1 OHM
*L_UNIT 1 HENRY

*NAME_MAP
*1 _000_
*2 _001_
*3 _002_
*4 _003_
*5 _004_
*6 _005_
*7 _006_
*8 _007_
*9 _008_
*10 _009_
*11 _010_
*12 _011_
*13 _012_
*14 _013_
*15 _014_
*16 _015_
*17 _016_
*18 _017_
*19 _018_
*20 _019_
*21 _020_
*22 _021_
*23 _022_
*24 _023_
*25 _024_
*26 _025_
*27 _026_
*28 _027_
*29 _028_
*30 _029_
*31 _030_
*32 _031_
*33 _032_
*34 _033_
*35 _034_
*36 _035_
*37 _036_
*38 _037_
*39 _038_
*40 _039_
*41 _040_
*42 _041_
*43 _042_
*44 _043_
*45 _044_
*46 _045_
*47 _046_
*48 _047_
*49 _048_
*50 _049_
*51 _050_
*52 _051_
*53 _052_
*54 _053_
*55 _054_
*56 _055_
*57 _056_
*58 _057_
*59 _058_
*60 _059_
*61 _060_
*62 _061_
*63 _062_
*64 _063_
*65 _064_
*66 _065_
*67 _066_
*68 _067_
*69 _068_
*70 _069_
*71 _070_
*72 _071_
*73 _072_
*74 _073_
*75 _074_
*76 _075_
*77 _076_
*78 _077_
*79 _078_
*80 _079_
*81 _080_
*82 _081_
*83 _082_
*84 _083_
*85 _084_
*86 _085_
*87 _086_
*88 _087_
*89 _088_
*90 _089_
*91 _090_
*92 _091_
*93 _092_
*94 _093_
*95 _094_
*96 _095_
*97 _096_
*98 _097_
*99 _098_
*100 _099_
*101 _100_
*102 _101_
*103 _102_
*104 _103_
*105 _104_
*106 _105_
*107 _106_
*108 _107_
*109 _108_
*110 _109_
*111 _110_
*112 _111_
*113 _112_
*114 _113_
*115 _114_
*116 _115_
*117 _116_
*118 _117_
*119 _118_
*120 _119_
*121 _120_
*122 _121_
*123 _122_
*124 _123_
*125 _124_
*126 _125_
*127 _126_
*128 _127_
*129 _128_
*130 _129_
*131 _130_
*132 _131_
*133 _132_
*134 _133_
*135 _134_
*136 _135_
*137 _136_
*138 _137_
*139 _138_
*140 _139_
*141 _140_
*142 _141_
*143 _142_
*144 _143_
*145 _144_
*146 _145_
*147 _146_
*148 _147_
*149 _148_
*150 _149_
*151 _150_
*152 _151_
*153 _152_
*154 _153_
*155 _154_
*156 _155_
*157 _156_
*158 _157_
*159 _158_
*160 _159_
*161 _160_
*162 _161_
*163 _162_
*164 _163_
*165 _164_
*166 _165_
*167 _166_
*168 _167_
*169 _168_
*170 _169_
*171 _170_
*172 _171_
*173 _172_
*174 _173_
*175 _174_
*176 _175_
*177 _176_
*178 _177_
*179 _178_
*180 _179_
*181 _180_
*182 _181_
*183 _182_
*184 _183_
*185 _184_
*186 _185_
*187 _186_
*188 _187_
*189 _188_
*190 _189_
*191 _190_
*192 _191_
*193 _192_
*194 _193_
*195 _194_
*196 _195_
*197 clknet_0_clk
*198 net43
*199 clk
*200 ena
*201 rst_n
*202 ui_in[0]
*203 ui_in[1]
*204 ui_in[2]
*205 ui_in[3]
*206 ui_in[4]
*207 ui_in[5]
*208 ui_in[6]
*209 ui_in[7]
*210 uio_in[0]
*211 uio_in[1]
*212 uio_in[2]
*213 uio_in[3]
*214 uio_in[4]
*215 uio_in[5]
*216 uio_in[6]
*217 uio_in[7]
*218 uio_oe[0]
*219 uio_oe[1]
*220 uio_oe[2]
*221 uio_oe[3]
*222 uio_oe[4]
*223 uio_oe[5]
*224 uio_oe[6]
*225 uio_oe[7]
*226 uio_out[0]
*227 uio_out[1]
*228 uio_out[2]
*229 uio_out[3]
*230 uio_out[4]
*231 uio_out[5]
*232 uio_out[6]
*233 uio_out[7]
*234 uo_out[0]
*235 uo_out[1]
*236 uo_out[2]
*237 uo_out[3]
*238 uo_out[4]
*239 uo_out[5]
*240 uo_out[6]
*241 uo_out[7]
*244 net1
*245 net2
*246 net3
*247 net4
*248 net5
*249 net6
*250 net7
*251 net8
*252 net9
*253 net10
*254 net11
*255 net12
*256 net13
*257 net14
*258 net15
*259 net16
*260 net17
*261 net18
*262 net19
*263 net20
*264 net21
*265 net22
*266 net23
*267 net24
*268 net25
*269 net26
*270 net27
*271 net28
*272 net29
*273 net30
*274 net31
*275 net32
*276 net33
*277 net34
*278 net35
*279 net36
*280 net37
*281 net38
*282 net39
*283 net40
*284 net41
*285 net42
*286 clknet_1_0__leaf_clk
*287 clknet_1_1__leaf_clk
*288 _198_
*289 _199_
*290 _200_
*291 _201_
*292 _202_
*293 _203_
*294 _204_
*295 _205_
*296 _206_
*297 _207_
*298 _208_
*299 _209_
*300 _210_
*301 _211_
*302 _212_
*303 _213_
*304 _214_
*305 _215_
*306 _216_
*307 _217_
*308 _218_
*309 _219_
*310 _220_
*311 _221_
*312 _222_
*313 _223_
*314 _224_
*315 _225_
*316 _226_
*317 _227_
*318 _228_
*319 _229_
*320 _230_
*321 _231_
*322 _232_
*323 _233_
*324 _234_
*325 _235_
*326 _236_
*327 _237_
*328 _238_
*329 _239_
*330 _240_
*331 _241_
*332 _242_
*333 _243_
*334 _244_
*335 _245_
*336 _246_
*337 _247_
*338 _248_
*339 _249_
*340 _250_
*341 _251_
*342 _252_
*343 _253_
*344 _254_
*345 _255_
*346 _256_
*347 _257_
*348 _258_
*349 _259_
*350 _260_
*351 _261_
*352 _262_
*353 _263_
*354 _264_
*355 _265_
*356 _266_
*357 _267_
*358 _268_
*359 _269_
*360 _270_
*361 _271_
*362 _272_
*363 _273_
*364 _274_
*365 _275_
*366 _276_
*367 _277_
*368 _278_
*369 _279_
*370 _280_
*371 _281_
*372 _282_
*373 _283_
*374 _284_
*375 _285_
*376 _286_
*377 _287_
*378 _288_
*379 _289_
*380 _290_
*381 _291_
*382 _292_
*383 _293_
*384 _294_
*385 _295_
*386 _296_
*387 _297_
*388 _298_
*389 _299_
*390 _300_
*391 _301_
*392 _302_
*393 _303_
*394 _304_
*395 _305_
*396 _306_
*397 _307_
*398 _308_
*399 _309_
*400 _310_
*401 _311_
*402 _312_
*403 _313_
*404 _314_
*405 _315_
*406 _316_
*407 _317_
*408 _318_
*409 _319_
*410 _320_
*411 _321_
*412 _322_
*413 _323_
*414 _324_
*415 _325_
*416 _326_
*417 _327_
*418 _328_
*419 _329_
*420 _330_
*421 _331_
*422 _332_
*423 _333_
*424 _334_
*425 _335_
*426 _336_
*427 _337_
*428 _338_
*429 _339_
*430 _340_
*431 _341_
*432 _342_
*433 _343_
*434 _344_
*435 _345_
*436 _346_
*437 _347_
*438 _348_
*439 _349_
*440 _350_
*441 _351_
*442 _352_
*443 _353_
*444 _354_
*445 _355_
*446 _356_
*447 _357_
*448 _358_
*449 _359_
*450 _360_
*451 _361_
*452 _362_
*453 _363_
*454 _364_
*455 _365_
*456 _366_
*457 _367_
*458 _368_
*459 _369_
*460 _370_
*461 _371_
*462 _372_
*463 _373_
*464 _374_
*465 _375_
*466 _376_
*467 _377_
*468 _378_
*469 _379_
*470 _380_
*471 _381_
*472 _382_
*473 _383_
*474 _384_
*475 _385_
*476 clkbuf_0_clk
*477 _388__43
*478 _388_
*479 _389_
*480 _390_
*481 _391_
*482 _392_
*483 _393_
*484 _394_
*485 _395_
*486 _396_
*487 _397_
*488 _398_
*489 _399_
*490 _400_
*491 _401_
*492 _402_
*493 _403_
*494 neuron\.A\[0\]\$_DFF_PP0_
*495 neuron\.A\[1\]\$_DFF_PP0_
*496 neuron\.A\[2\]\$_DFF_PP0_
*497 neuron\.A\[3\]\$_DFF_PP0_
*498 neuron\.A\[4\]\$_DFF_PP0_
*499 neuron\.A\[5\]\$_DFF_PP0_
*500 neuron\.A\[6\]\$_DFF_PP0_
*501 neuron\.A\[7\]\$_DFF_PP0_
*502 input1
*503 input2
*504 input3
*505 input4
*506 input5
*507 input6
*508 output7
*509 output8
*510 output9
*511 output10
*512 output11
*513 output12
*514 output13
*515 output14
*516 fanout15
*517 fanout16
*518 fanout17
*519 fanout18
*520 fanout19
*521 fanout20
*522 fanout21
*523 fanout22
*524 fanout23
*525 fanout24
*526 fanout25
*527 fanout26
*528 fanout27
*529 _389__28
*530 _390__29
*531 _391__30
*532 _392__31
*533 _393__32
*534 _394__33
*535 _395__34
*536 _396__35
*537 _397__36
*538 _398__37
*539 _399__38
*540 _400__39
*541 _401__40
*542 _402__41
*543 _403__42
*544 clkbuf_1_0__f_clk
*545 clkbuf_1_1__f_clk
*546 FILLER_0_0
*547 FILLER_0_7
*548 FILLER_0_14
*549 FILLER_0_21
*550 FILLER_0_28
*551 FILLER_0_35
*552 FILLER_0_42
*553 FILLER_0_49
*554 FILLER_0_56
*555 FILLER_0_63
*556 FILLER_0_70
*557 FILLER_0_77
*558 FILLER_0_84
*559 FILLER_0_91
*560 FILLER_0_98
*561 FILLER_0_105
*562 FILLER_0_112
*563 FILLER_0_119
*564 FILLER_0_126
*565 FILLER_0_133
*566 FILLER_0_140
*567 FILLER_0_147
*568 FILLER_0_154
*569 FILLER_0_161
*570 FILLER_0_168
*571 FILLER_0_175
*572 FILLER_0_182
*573 FILLER_0_189
*574 FILLER_0_196
*575 FILLER_0_203
*576 FILLER_0_210
*577 FILLER_0_217
*578 FILLER_0_224
*579 FILLER_0_231
*580 FILLER_0_238
*581 FILLER_0_245
*582 FILLER_0_252
*583 FILLER_0_259
*584 FILLER_0_266
*585 FILLER_0_273
*586 FILLER_0_280
*587 FILLER_0_287
*588 FILLER_0_294
*589 FILLER_0_301
*590 FILLER_0_308
*591 FILLER_0_315
*592 FILLER_0_322
*593 FILLER_0_329
*594 FILLER_0_336
*595 FILLER_0_343
*596 FILLER_0_350
*597 FILLER_0_357
*598 FILLER_0_364
*599 FILLER_0_371
*600 FILLER_0_378
*601 FILLER_0_385
*602 FILLER_0_392
*603 FILLER_0_399
*604 FILLER_0_406
*605 FILLER_0_413
*606 FILLER_0_420
*607 FILLER_0_427
*608 FILLER_0_429
*609 FILLER_1_0
*610 FILLER_1_7
*611 FILLER_1_14
*612 FILLER_1_21
*613 FILLER_1_28
*614 FILLER_1_35
*615 FILLER_1_42
*616 FILLER_1_49
*617 FILLER_1_56
*618 FILLER_1_63
*619 FILLER_1_70
*620 FILLER_1_77
*621 FILLER_1_84
*622 FILLER_1_91
*623 FILLER_1_98
*624 FILLER_1_105
*625 FILLER_1_112
*626 FILLER_1_119
*627 FILLER_1_126
*628 FILLER_1_133
*629 FILLER_1_140
*630 FILLER_1_147
*631 FILLER_1_154
*632 FILLER_1_161
*633 FILLER_1_168
*634 FILLER_1_175
*635 FILLER_1_182
*636 FILLER_1_189
*637 FILLER_1_196
*638 FILLER_1_203
*639 FILLER_1_210
*640 FILLER_1_217
*641 FILLER_1_224
*642 FILLER_1_231
*643 FILLER_1_238
*644 FILLER_1_245
*645 FILLER_1_252
*646 FILLER_1_259
*647 FILLER_1_266
*648 FILLER_1_273
*649 FILLER_1_280
*650 FILLER_1_287
*651 FILLER_1_294
*652 FILLER_1_301
*653 FILLER_1_308
*654 FILLER_1_315
*655 FILLER_1_322
*656 FILLER_1_329
*657 FILLER_1_336
*658 FILLER_1_343
*659 FILLER_1_350
*660 FILLER_1_357
*661 FILLER_1_364
*662 FILLER_1_371
*663 FILLER_1_378
*664 FILLER_1_385
*665 FILLER_1_392
*666 FILLER_1_399
*667 FILLER_1_406
*668 FILLER_1_413
*669 FILLER_1_420
*670 FILLER_1_427
*671 FILLER_1_429
*672 FILLER_2_0
*673 FILLER_2_7
*674 FILLER_2_14
*675 FILLER_2_21
*676 FILLER_2_28
*677 FILLER_2_35
*678 FILLER_2_42
*679 FILLER_2_49
*680 FILLER_2_56
*681 FILLER_2_63
*682 FILLER_2_70
*683 FILLER_2_77
*684 FILLER_2_84
*685 FILLER_2_91
*686 FILLER_2_98
*687 FILLER_2_105
*688 FILLER_2_112
*689 FILLER_2_119
*690 FILLER_2_126
*691 FILLER_2_133
*692 FILLER_2_140
*693 FILLER_2_147
*694 FILLER_2_154
*695 FILLER_2_161
*696 FILLER_2_168
*697 FILLER_2_175
*698 FILLER_2_182
*699 FILLER_2_189
*700 FILLER_2_196
*701 FILLER_2_203
*702 FILLER_2_210
*703 FILLER_2_217
*704 FILLER_2_224
*705 FILLER_2_231
*706 FILLER_2_238
*707 FILLER_2_245
*708 FILLER_2_252
*709 FILLER_2_259
*710 FILLER_2_266
*711 FILLER_2_273
*712 FILLER_2_280
*713 FILLER_2_287
*714 FILLER_2_294
*715 FILLER_2_301
*716 FILLER_2_308
*717 FILLER_2_315
*718 FILLER_2_322
*719 FILLER_2_329
*720 FILLER_2_336
*721 FILLER_2_343
*722 FILLER_2_350
*723 FILLER_2_357
*724 FILLER_2_364
*725 FILLER_2_371
*726 FILLER_2_378
*727 FILLER_2_385
*728 FILLER_2_392
*729 FILLER_2_399
*730 FILLER_2_406
*731 FILLER_2_413
*732 FILLER_2_420
*733 FILLER_2_427
*734 FILLER_2_429
*735 FILLER_3_0
*736 FILLER_3_7
*737 FILLER_3_14
*738 FILLER_3_21
*739 FILLER_3_28
*740 FILLER_3_35
*741 FILLER_3_42
*742 FILLER_3_49
*743 FILLER_3_56
*744 FILLER_3_63
*745 FILLER_3_70
*746 FILLER_3_77
*747 FILLER_3_84
*748 FILLER_3_91
*749 FILLER_3_98
*750 FILLER_3_105
*751 FILLER_3_112
*752 FILLER_3_119
*753 FILLER_3_126
*754 FILLER_3_133
*755 FILLER_3_140
*756 FILLER_3_147
*757 FILLER_3_154
*758 FILLER_3_161
*759 FILLER_3_168
*760 FILLER_3_175
*761 FILLER_3_182
*762 FILLER_3_189
*763 FILLER_3_196
*764 FILLER_3_203
*765 FILLER_3_210
*766 FILLER_3_217
*767 FILLER_3_224
*768 FILLER_3_231
*769 FILLER_3_238
*770 FILLER_3_245
*771 FILLER_3_252
*772 FILLER_3_259
*773 FILLER_3_266
*774 FILLER_3_273
*775 FILLER_3_280
*776 FILLER_3_287
*777 FILLER_3_294
*778 FILLER_3_301
*779 FILLER_3_308
*780 FILLER_3_315
*781 FILLER_3_322
*782 FILLER_3_329
*783 FILLER_3_336
*784 FILLER_3_343
*785 FILLER_3_350
*786 FILLER_3_357
*787 FILLER_3_364
*788 FILLER_3_371
*789 FILLER_3_378
*790 FILLER_3_385
*791 FILLER_3_392
*792 FILLER_3_399
*793 FILLER_3_406
*794 FILLER_3_413
*795 FILLER_3_420
*796 FILLER_3_427
*797 FILLER_3_429
*798 FILLER_4_0
*799 FILLER_4_7
*800 FILLER_4_14
*801 FILLER_4_21
*802 FILLER_4_28
*803 FILLER_4_35
*804 FILLER_4_42
*805 FILLER_4_49
*806 FILLER_4_56
*807 FILLER_4_63
*808 FILLER_4_70
*809 FILLER_4_77
*810 FILLER_4_84
*811 FILLER_4_91
*812 FILLER_4_98
*813 FILLER_4_105
*814 FILLER_4_112
*815 FILLER_4_119
*816 FILLER_4_126
*817 FILLER_4_133
*818 FILLER_4_140
*819 FILLER_4_147
*820 FILLER_4_154
*821 FILLER_4_161
*822 FILLER_4_168
*823 FILLER_4_175
*824 FILLER_4_182
*825 FILLER_4_189
*826 FILLER_4_196
*827 FILLER_4_203
*828 FILLER_4_210
*829 FILLER_4_217
*830 FILLER_4_224
*831 FILLER_4_231
*832 FILLER_4_238
*833 FILLER_4_245
*834 FILLER_4_252
*835 FILLER_4_259
*836 FILLER_4_266
*837 FILLER_4_273
*838 FILLER_4_280
*839 FILLER_4_287
*840 FILLER_4_294
*841 FILLER_4_301
*842 FILLER_4_308
*843 FILLER_4_315
*844 FILLER_4_322
*845 FILLER_4_329
*846 FILLER_4_336
*847 FILLER_4_343
*848 FILLER_4_350
*849 FILLER_4_357
*850 FILLER_4_364
*851 FILLER_4_371
*852 FILLER_4_378
*853 FILLER_4_385
*854 FILLER_4_392
*855 FILLER_4_399
*856 FILLER_4_406
*857 FILLER_4_413
*858 FILLER_4_420
*859 FILLER_4_427
*860 FILLER_4_429
*861 FILLER_5_0
*862 FILLER_5_7
*863 FILLER_5_14
*864 FILLER_5_21
*865 FILLER_5_28
*866 FILLER_5_35
*867 FILLER_5_42
*868 FILLER_5_49
*869 FILLER_5_56
*870 FILLER_5_63
*871 FILLER_5_70
*872 FILLER_5_77
*873 FILLER_5_84
*874 FILLER_5_91
*875 FILLER_5_98
*876 FILLER_5_105
*877 FILLER_5_112
*878 FILLER_5_119
*879 FILLER_5_126
*880 FILLER_5_133
*881 FILLER_5_140
*882 FILLER_5_147
*883 FILLER_5_154
*884 FILLER_5_161
*885 FILLER_5_168
*886 FILLER_5_175
*887 FILLER_5_182
*888 FILLER_5_189
*889 FILLER_5_196
*890 FILLER_5_203
*891 FILLER_5_210
*892 FILLER_5_217
*893 FILLER_5_224
*894 FILLER_5_231
*895 FILLER_5_238
*896 FILLER_5_245
*897 FILLER_5_252
*898 FILLER_5_259
*899 FILLER_5_266
*900 FILLER_5_273
*901 FILLER_5_280
*902 FILLER_5_287
*903 FILLER_5_294
*904 FILLER_5_301
*905 FILLER_5_308
*906 FILLER_5_315
*907 FILLER_5_322
*908 FILLER_5_329
*909 FILLER_5_336
*910 FILLER_5_343
*911 FILLER_5_350
*912 FILLER_5_357
*913 FILLER_5_364
*914 FILLER_5_371
*915 FILLER_5_378
*916 FILLER_5_385
*917 FILLER_5_392
*918 FILLER_5_399
*919 FILLER_5_406
*920 FILLER_5_413
*921 FILLER_5_420
*922 FILLER_5_427
*923 FILLER_5_429
*924 FILLER_6_0
*925 FILLER_6_7
*926 FILLER_6_14
*927 FILLER_6_21
*928 FILLER_6_28
*929 FILLER_6_35
*930 FILLER_6_42
*931 FILLER_6_49
*932 FILLER_6_56
*933 FILLER_6_63
*934 FILLER_6_70
*935 FILLER_6_77
*936 FILLER_6_84
*937 FILLER_6_91
*938 FILLER_6_98
*939 FILLER_6_105
*940 FILLER_6_112
*941 FILLER_6_119
*942 FILLER_6_126
*943 FILLER_6_133
*944 FILLER_6_140
*945 FILLER_6_147
*946 FILLER_6_154
*947 FILLER_6_161
*948 FILLER_6_168
*949 FILLER_6_175
*950 FILLER_6_182
*951 FILLER_6_189
*952 FILLER_6_196
*953 FILLER_6_203
*954 FILLER_6_210
*955 FILLER_6_217
*956 FILLER_6_224
*957 FILLER_6_231
*958 FILLER_6_238
*959 FILLER_6_245
*960 FILLER_6_252
*961 FILLER_6_259
*962 FILLER_6_266
*963 FILLER_6_273
*964 FILLER_6_280
*965 FILLER_6_287
*966 FILLER_6_294
*967 FILLER_6_301
*968 FILLER_6_308
*969 FILLER_6_315
*970 FILLER_6_322
*971 FILLER_6_329
*972 FILLER_6_336
*973 FILLER_6_343
*974 FILLER_6_350
*975 FILLER_6_357
*976 FILLER_6_364
*977 FILLER_6_371
*978 FILLER_6_378
*979 FILLER_6_385
*980 FILLER_6_392
*981 FILLER_6_399
*982 FILLER_6_406
*983 FILLER_6_413
*984 FILLER_6_420
*985 FILLER_6_427
*986 FILLER_6_429
*987 FILLER_7_0
*988 FILLER_7_7
*989 FILLER_7_14
*990 FILLER_7_21
*991 FILLER_7_28
*992 FILLER_7_35
*993 FILLER_7_42
*994 FILLER_7_49
*995 FILLER_7_56
*996 FILLER_7_63
*997 FILLER_7_70
*998 FILLER_7_77
*999 FILLER_7_84
*1000 FILLER_7_91
*1001 FILLER_7_98
*1002 FILLER_7_105
*1003 FILLER_7_112
*1004 FILLER_7_119
*1005 FILLER_7_126
*1006 FILLER_7_133
*1007 FILLER_7_140
*1008 FILLER_7_147
*1009 FILLER_7_154
*1010 FILLER_7_161
*1011 FILLER_7_168
*1012 FILLER_7_175
*1013 FILLER_7_182
*1014 FILLER_7_189
*1015 FILLER_7_196
*1016 FILLER_7_203
*1017 FILLER_7_210
*1018 FILLER_7_217
*1019 FILLER_7_224
*1020 FILLER_7_231
*1021 FILLER_7_238
*1022 FILLER_7_245
*1023 FILLER_7_252
*1024 FILLER_7_259
*1025 FILLER_7_266
*1026 FILLER_7_273
*1027 FILLER_7_280
*1028 FILLER_7_287
*1029 FILLER_7_294
*1030 FILLER_7_301
*1031 FILLER_7_308
*1032 FILLER_7_315
*1033 FILLER_7_322
*1034 FILLER_7_329
*1035 FILLER_7_336
*1036 FILLER_7_343
*1037 FILLER_7_350
*1038 FILLER_7_357
*1039 FILLER_7_364
*1040 FILLER_7_371
*1041 FILLER_7_378
*1042 FILLER_7_385
*1043 FILLER_7_392
*1044 FILLER_7_399
*1045 FILLER_7_406
*1046 FILLER_7_413
*1047 FILLER_7_420
*1048 FILLER_7_427
*1049 FILLER_7_429
*1050 FILLER_8_0
*1051 FILLER_8_7
*1052 FILLER_8_14
*1053 FILLER_8_21
*1054 FILLER_8_28
*1055 FILLER_8_35
*1056 FILLER_8_42
*1057 FILLER_8_49
*1058 FILLER_8_56
*1059 FILLER_8_63
*1060 FILLER_8_70
*1061 FILLER_8_77
*1062 FILLER_8_84
*1063 FILLER_8_91
*1064 FILLER_8_98
*1065 FILLER_8_105
*1066 FILLER_8_112
*1067 FILLER_8_119
*1068 FILLER_8_126
*1069 FILLER_8_133
*1070 FILLER_8_140
*1071 FILLER_8_147
*1072 FILLER_8_154
*1073 FILLER_8_161
*1074 FILLER_8_168
*1075 FILLER_8_175
*1076 FILLER_8_182
*1077 FILLER_8_189
*1078 FILLER_8_196
*1079 FILLER_8_203
*1080 FILLER_8_210
*1081 FILLER_8_217
*1082 FILLER_8_224
*1083 FILLER_8_231
*1084 FILLER_8_238
*1085 FILLER_8_245
*1086 FILLER_8_252
*1087 FILLER_8_259
*1088 FILLER_8_266
*1089 FILLER_8_273
*1090 FILLER_8_280
*1091 FILLER_8_287
*1092 FILLER_8_294
*1093 FILLER_8_301
*1094 FILLER_8_308
*1095 FILLER_8_315
*1096 FILLER_8_322
*1097 FILLER_8_329
*1098 FILLER_8_336
*1099 FILLER_8_343
*1100 FILLER_8_350
*1101 FILLER_8_357
*1102 FILLER_8_364
*1103 FILLER_8_371
*1104 FILLER_8_378
*1105 FILLER_8_385
*1106 FILLER_8_392
*1107 FILLER_8_399
*1108 FILLER_8_406
*1109 FILLER_8_413
*1110 FILLER_8_420
*1111 FILLER_8_427
*1112 FILLER_8_429
*1113 FILLER_9_0
*1114 FILLER_9_7
*1115 FILLER_9_14
*1116 FILLER_9_21
*1117 FILLER_9_28
*1118 FILLER_9_35
*1119 FILLER_9_42
*1120 FILLER_9_49
*1121 FILLER_9_56
*1122 FILLER_9_63
*1123 FILLER_9_70
*1124 FILLER_9_77
*1125 FILLER_9_84
*1126 FILLER_9_91
*1127 FILLER_9_98
*1128 FILLER_9_105
*1129 FILLER_9_112
*1130 FILLER_9_119
*1131 FILLER_9_126
*1132 FILLER_9_133
*1133 FILLER_9_140
*1134 FILLER_9_147
*1135 FILLER_9_154
*1136 FILLER_9_161
*1137 FILLER_9_168
*1138 FILLER_9_175
*1139 FILLER_9_182
*1140 FILLER_9_189
*1141 FILLER_9_196
*1142 FILLER_9_203
*1143 FILLER_9_210
*1144 FILLER_9_217
*1145 FILLER_9_224
*1146 FILLER_9_231
*1147 FILLER_9_238
*1148 FILLER_9_245
*1149 FILLER_9_252
*1150 FILLER_9_259
*1151 FILLER_9_266
*1152 FILLER_9_273
*1153 FILLER_9_280
*1154 FILLER_9_287
*1155 FILLER_9_294
*1156 FILLER_9_301
*1157 FILLER_9_308
*1158 FILLER_9_315
*1159 FILLER_9_322
*1160 FILLER_9_329
*1161 FILLER_9_336
*1162 FILLER_9_343
*1163 FILLER_9_350
*1164 FILLER_9_357
*1165 FILLER_9_364
*1166 FILLER_9_371
*1167 FILLER_9_378
*1168 FILLER_9_385
*1169 FILLER_9_392
*1170 FILLER_9_399
*1171 FILLER_9_406
*1172 FILLER_9_413
*1173 FILLER_9_420
*1174 FILLER_9_427
*1175 FILLER_9_429
*1176 FILLER_10_0
*1177 FILLER_10_7
*1178 FILLER_10_14
*1179 FILLER_10_21
*1180 FILLER_10_28
*1181 FILLER_10_35
*1182 FILLER_10_42
*1183 FILLER_10_49
*1184 FILLER_10_56
*1185 FILLER_10_63
*1186 FILLER_10_70
*1187 FILLER_10_77
*1188 FILLER_10_84
*1189 FILLER_10_91
*1190 FILLER_10_98
*1191 FILLER_10_105
*1192 FILLER_10_112
*1193 FILLER_10_119
*1194 FILLER_10_126
*1195 FILLER_10_133
*1196 FILLER_10_140
*1197 FILLER_10_147
*1198 FILLER_10_154
*1199 FILLER_10_161
*1200 FILLER_10_168
*1201 FILLER_10_175
*1202 FILLER_10_182
*1203 FILLER_10_189
*1204 FILLER_10_196
*1205 FILLER_10_203
*1206 FILLER_10_210
*1207 FILLER_10_217
*1208 FILLER_10_224
*1209 FILLER_10_231
*1210 FILLER_10_238
*1211 FILLER_10_245
*1212 FILLER_10_252
*1213 FILLER_10_259
*1214 FILLER_10_266
*1215 FILLER_10_273
*1216 FILLER_10_280
*1217 FILLER_10_287
*1218 FILLER_10_294
*1219 FILLER_10_301
*1220 FILLER_10_308
*1221 FILLER_10_315
*1222 FILLER_10_322
*1223 FILLER_10_329
*1224 FILLER_10_336
*1225 FILLER_10_343
*1226 FILLER_10_350
*1227 FILLER_10_357
*1228 FILLER_10_364
*1229 FILLER_10_371
*1230 FILLER_10_378
*1231 FILLER_10_385
*1232 FILLER_10_392
*1233 FILLER_10_399
*1234 FILLER_10_406
*1235 FILLER_10_413
*1236 FILLER_10_420
*1237 FILLER_10_427
*1238 FILLER_10_429
*1239 FILLER_11_0
*1240 FILLER_11_7
*1241 FILLER_11_14
*1242 FILLER_11_21
*1243 FILLER_11_28
*1244 FILLER_11_35
*1245 FILLER_11_42
*1246 FILLER_11_49
*1247 FILLER_11_56
*1248 FILLER_11_63
*1249 FILLER_11_70
*1250 FILLER_11_77
*1251 FILLER_11_84
*1252 FILLER_11_91
*1253 FILLER_11_98
*1254 FILLER_11_105
*1255 FILLER_11_112
*1256 FILLER_11_119
*1257 FILLER_11_126
*1258 FILLER_11_133
*1259 FILLER_11_140
*1260 FILLER_11_147
*1261 FILLER_11_154
*1262 FILLER_11_161
*1263 FILLER_11_168
*1264 FILLER_11_175
*1265 FILLER_11_182
*1266 FILLER_11_189
*1267 FILLER_11_196
*1268 FILLER_11_203
*1269 FILLER_11_210
*1270 FILLER_11_217
*1271 FILLER_11_224
*1272 FILLER_11_231
*1273 FILLER_11_238
*1274 FILLER_11_245
*1275 FILLER_11_252
*1276 FILLER_11_259
*1277 FILLER_11_266
*1278 FILLER_11_273
*1279 FILLER_11_280
*1280 FILLER_11_287
*1281 FILLER_11_294
*1282 FILLER_11_301
*1283 FILLER_11_308
*1284 FILLER_11_315
*1285 FILLER_11_322
*1286 FILLER_11_329
*1287 FILLER_11_336
*1288 FILLER_11_343
*1289 FILLER_11_350
*1290 FILLER_11_357
*1291 FILLER_11_364
*1292 FILLER_11_371
*1293 FILLER_11_378
*1294 FILLER_11_385
*1295 FILLER_11_392
*1296 FILLER_11_399
*1297 FILLER_11_406
*1298 FILLER_11_413
*1299 FILLER_11_420
*1300 FILLER_11_427
*1301 FILLER_11_429
*1302 FILLER_12_0
*1303 FILLER_12_7
*1304 FILLER_12_14
*1305 FILLER_12_21
*1306 FILLER_12_28
*1307 FILLER_12_35
*1308 FILLER_12_42
*1309 FILLER_12_49
*1310 FILLER_12_56
*1311 FILLER_12_63
*1312 FILLER_12_70
*1313 FILLER_12_77
*1314 FILLER_12_84
*1315 FILLER_12_91
*1316 FILLER_12_98
*1317 FILLER_12_105
*1318 FILLER_12_112
*1319 FILLER_12_119
*1320 FILLER_12_126
*1321 FILLER_12_133
*1322 FILLER_12_140
*1323 FILLER_12_147
*1324 FILLER_12_154
*1325 FILLER_12_161
*1326 FILLER_12_168
*1327 FILLER_12_175
*1328 FILLER_12_182
*1329 FILLER_12_189
*1330 FILLER_12_196
*1331 FILLER_12_203
*1332 FILLER_12_210
*1333 FILLER_12_217
*1334 FILLER_12_224
*1335 FILLER_12_231
*1336 FILLER_12_238
*1337 FILLER_12_245
*1338 FILLER_12_252
*1339 FILLER_12_259
*1340 FILLER_12_266
*1341 FILLER_12_273
*1342 FILLER_12_280
*1343 FILLER_12_287
*1344 FILLER_12_294
*1345 FILLER_12_301
*1346 FILLER_12_308
*1347 FILLER_12_315
*1348 FILLER_12_322
*1349 FILLER_12_329
*1350 FILLER_12_336
*1351 FILLER_12_343
*1352 FILLER_12_350
*1353 FILLER_12_357
*1354 FILLER_12_364
*1355 FILLER_12_371
*1356 FILLER_12_378
*1357 FILLER_12_385
*1358 FILLER_12_392
*1359 FILLER_12_399
*1360 FILLER_12_406
*1361 FILLER_12_413
*1362 FILLER_12_420
*1363 FILLER_12_427
*1364 FILLER_12_429
*1365 FILLER_13_0
*1366 FILLER_13_7
*1367 FILLER_13_14
*1368 FILLER_13_21
*1369 FILLER_13_28
*1370 FILLER_13_35
*1371 FILLER_13_42
*1372 FILLER_13_49
*1373 FILLER_13_56
*1374 FILLER_13_63
*1375 FILLER_13_70
*1376 FILLER_13_77
*1377 FILLER_13_84
*1378 FILLER_13_91
*1379 FILLER_13_98
*1380 FILLER_13_105
*1381 FILLER_13_112
*1382 FILLER_13_119
*1383 FILLER_13_126
*1384 FILLER_13_133
*1385 FILLER_13_140
*1386 FILLER_13_147
*1387 FILLER_13_154
*1388 FILLER_13_161
*1389 FILLER_13_168
*1390 FILLER_13_175
*1391 FILLER_13_182
*1392 FILLER_13_189
*1393 FILLER_13_196
*1394 FILLER_13_203
*1395 FILLER_13_210
*1396 FILLER_13_217
*1397 FILLER_13_224
*1398 FILLER_13_231
*1399 FILLER_13_238
*1400 FILLER_13_245
*1401 FILLER_13_252
*1402 FILLER_13_259
*1403 FILLER_13_266
*1404 FILLER_13_273
*1405 FILLER_13_280
*1406 FILLER_13_287
*1407 FILLER_13_294
*1408 FILLER_13_301
*1409 FILLER_13_308
*1410 FILLER_13_315
*1411 FILLER_13_322
*1412 FILLER_13_329
*1413 FILLER_13_336
*1414 FILLER_13_343
*1415 FILLER_13_350
*1416 FILLER_13_357
*1417 FILLER_13_364
*1418 FILLER_13_371
*1419 FILLER_13_378
*1420 FILLER_13_385
*1421 FILLER_13_392
*1422 FILLER_13_399
*1423 FILLER_13_406
*1424 FILLER_13_413
*1425 FILLER_13_420
*1426 FILLER_13_427
*1427 FILLER_13_429
*1428 FILLER_14_0
*1429 FILLER_14_7
*1430 FILLER_14_14
*1431 FILLER_14_21
*1432 FILLER_14_28
*1433 FILLER_14_35
*1434 FILLER_14_42
*1435 FILLER_14_49
*1436 FILLER_14_56
*1437 FILLER_14_63
*1438 FILLER_14_70
*1439 FILLER_14_77
*1440 FILLER_14_84
*1441 FILLER_14_91
*1442 FILLER_14_98
*1443 FILLER_14_105
*1444 FILLER_14_112
*1445 FILLER_14_119
*1446 FILLER_14_126
*1447 FILLER_14_133
*1448 FILLER_14_140
*1449 FILLER_14_147
*1450 FILLER_14_154
*1451 FILLER_14_161
*1452 FILLER_14_168
*1453 FILLER_14_175
*1454 FILLER_14_182
*1455 FILLER_14_189
*1456 FILLER_14_196
*1457 FILLER_14_203
*1458 FILLER_14_210
*1459 FILLER_14_217
*1460 FILLER_14_224
*1461 FILLER_14_231
*1462 FILLER_14_238
*1463 FILLER_14_245
*1464 FILLER_14_252
*1465 FILLER_14_259
*1466 FILLER_14_266
*1467 FILLER_14_273
*1468 FILLER_14_280
*1469 FILLER_14_287
*1470 FILLER_14_294
*1471 FILLER_14_301
*1472 FILLER_14_308
*1473 FILLER_14_315
*1474 FILLER_14_322
*1475 FILLER_14_329
*1476 FILLER_14_336
*1477 FILLER_14_343
*1478 FILLER_14_350
*1479 FILLER_14_357
*1480 FILLER_14_364
*1481 FILLER_14_371
*1482 FILLER_14_378
*1483 FILLER_14_385
*1484 FILLER_14_392
*1485 FILLER_14_399
*1486 FILLER_14_406
*1487 FILLER_14_413
*1488 FILLER_14_420
*1489 FILLER_14_427
*1490 FILLER_14_429
*1491 FILLER_15_0
*1492 FILLER_15_7
*1493 FILLER_15_14
*1494 FILLER_15_21
*1495 FILLER_15_28
*1496 FILLER_15_35
*1497 FILLER_15_42
*1498 FILLER_15_49
*1499 FILLER_15_56
*1500 FILLER_15_63
*1501 FILLER_15_70
*1502 FILLER_15_77
*1503 FILLER_15_84
*1504 FILLER_15_91
*1505 FILLER_15_98
*1506 FILLER_15_105
*1507 FILLER_15_112
*1508 FILLER_15_119
*1509 FILLER_15_126
*1510 FILLER_15_133
*1511 FILLER_15_140
*1512 FILLER_15_147
*1513 FILLER_15_154
*1514 FILLER_15_161
*1515 FILLER_15_168
*1516 FILLER_15_175
*1517 FILLER_15_182
*1518 FILLER_15_189
*1519 FILLER_15_196
*1520 FILLER_15_203
*1521 FILLER_15_210
*1522 FILLER_15_217
*1523 FILLER_15_224
*1524 FILLER_15_231
*1525 FILLER_15_238
*1526 FILLER_15_245
*1527 FILLER_15_252
*1528 FILLER_15_259
*1529 FILLER_15_266
*1530 FILLER_15_273
*1531 FILLER_15_280
*1532 FILLER_15_287
*1533 FILLER_15_294
*1534 FILLER_15_301
*1535 FILLER_15_308
*1536 FILLER_15_315
*1537 FILLER_15_322
*1538 FILLER_15_329
*1539 FILLER_15_336
*1540 FILLER_15_343
*1541 FILLER_15_350
*1542 FILLER_15_357
*1543 FILLER_15_364
*1544 FILLER_15_371
*1545 FILLER_15_378
*1546 FILLER_15_385
*1547 FILLER_15_392
*1548 FILLER_15_399
*1549 FILLER_15_406
*1550 FILLER_15_413
*1551 FILLER_15_420
*1552 FILLER_15_427
*1553 FILLER_15_429
*1554 FILLER_16_0
*1555 FILLER_16_7
*1556 FILLER_16_14
*1557 FILLER_16_21
*1558 FILLER_16_28
*1559 FILLER_16_35
*1560 FILLER_16_42
*1561 FILLER_16_49
*1562 FILLER_16_56
*1563 FILLER_16_63
*1564 FILLER_16_70
*1565 FILLER_16_77
*1566 FILLER_16_84
*1567 FILLER_16_91
*1568 FILLER_16_98
*1569 FILLER_16_105
*1570 FILLER_16_112
*1571 FILLER_16_119
*1572 FILLER_16_126
*1573 FILLER_16_133
*1574 FILLER_16_140
*1575 FILLER_16_147
*1576 FILLER_16_154
*1577 FILLER_16_161
*1578 FILLER_16_168
*1579 FILLER_16_175
*1580 FILLER_16_182
*1581 FILLER_16_189
*1582 FILLER_16_196
*1583 FILLER_16_203
*1584 FILLER_16_210
*1585 FILLER_16_217
*1586 FILLER_16_224
*1587 FILLER_16_231
*1588 FILLER_16_238
*1589 FILLER_16_245
*1590 FILLER_16_252
*1591 FILLER_16_259
*1592 FILLER_16_266
*1593 FILLER_16_273
*1594 FILLER_16_280
*1595 FILLER_16_287
*1596 FILLER_16_294
*1597 FILLER_16_301
*1598 FILLER_16_308
*1599 FILLER_16_315
*1600 FILLER_16_322
*1601 FILLER_16_329
*1602 FILLER_16_336
*1603 FILLER_16_343
*1604 FILLER_16_350
*1605 FILLER_16_357
*1606 FILLER_16_364
*1607 FILLER_16_371
*1608 FILLER_16_378
*1609 FILLER_16_385
*1610 FILLER_16_392
*1611 FILLER_16_399
*1612 FILLER_16_406
*1613 FILLER_16_413
*1614 FILLER_16_420
*1615 FILLER_16_427
*1616 FILLER_16_429
*1617 FILLER_17_0
*1618 FILLER_17_7
*1619 FILLER_17_14
*1620 FILLER_17_21
*1621 FILLER_17_28
*1622 FILLER_17_35
*1623 FILLER_17_42
*1624 FILLER_17_49
*1625 FILLER_17_56
*1626 FILLER_17_63
*1627 FILLER_17_70
*1628 FILLER_17_77
*1629 FILLER_17_84
*1630 FILLER_17_91
*1631 FILLER_17_98
*1632 FILLER_17_105
*1633 FILLER_17_112
*1634 FILLER_17_119
*1635 FILLER_17_126
*1636 FILLER_17_133
*1637 FILLER_17_140
*1638 FILLER_17_147
*1639 FILLER_17_154
*1640 FILLER_17_161
*1641 FILLER_17_168
*1642 FILLER_17_175
*1643 FILLER_17_182
*1644 FILLER_17_189
*1645 FILLER_17_196
*1646 FILLER_17_203
*1647 FILLER_17_210
*1648 FILLER_17_217
*1649 FILLER_17_224
*1650 FILLER_17_231
*1651 FILLER_17_238
*1652 FILLER_17_245
*1653 FILLER_17_252
*1654 FILLER_17_259
*1655 FILLER_17_266
*1656 FILLER_17_273
*1657 FILLER_17_280
*1658 FILLER_17_287
*1659 FILLER_17_294
*1660 FILLER_17_301
*1661 FILLER_17_308
*1662 FILLER_17_315
*1663 FILLER_17_322
*1664 FILLER_17_329
*1665 FILLER_17_336
*1666 FILLER_17_343
*1667 FILLER_17_350
*1668 FILLER_17_357
*1669 FILLER_17_364
*1670 FILLER_17_371
*1671 FILLER_17_378
*1672 FILLER_17_385
*1673 FILLER_17_392
*1674 FILLER_17_399
*1675 FILLER_17_406
*1676 FILLER_17_413
*1677 FILLER_17_420
*1678 FILLER_17_427
*1679 FILLER_17_429
*1680 FILLER_18_0
*1681 FILLER_18_7
*1682 FILLER_18_14
*1683 FILLER_18_21
*1684 FILLER_18_28
*1685 FILLER_18_35
*1686 FILLER_18_42
*1687 FILLER_18_49
*1688 FILLER_18_56
*1689 FILLER_18_63
*1690 FILLER_18_70
*1691 FILLER_18_77
*1692 FILLER_18_84
*1693 FILLER_18_91
*1694 FILLER_18_98
*1695 FILLER_18_105
*1696 FILLER_18_112
*1697 FILLER_18_119
*1698 FILLER_18_126
*1699 FILLER_18_133
*1700 FILLER_18_140
*1701 FILLER_18_147
*1702 FILLER_18_154
*1703 FILLER_18_161
*1704 FILLER_18_168
*1705 FILLER_18_175
*1706 FILLER_18_182
*1707 FILLER_18_189
*1708 FILLER_18_196
*1709 FILLER_18_203
*1710 FILLER_18_210
*1711 FILLER_18_217
*1712 FILLER_18_224
*1713 FILLER_18_231
*1714 FILLER_18_238
*1715 FILLER_18_245
*1716 FILLER_18_252
*1717 FILLER_18_259
*1718 FILLER_18_266
*1719 FILLER_18_273
*1720 FILLER_18_280
*1721 FILLER_18_287
*1722 FILLER_18_294
*1723 FILLER_18_301
*1724 FILLER_18_308
*1725 FILLER_18_315
*1726 FILLER_18_322
*1727 FILLER_18_329
*1728 FILLER_18_336
*1729 FILLER_18_343
*1730 FILLER_18_350
*1731 FILLER_18_357
*1732 FILLER_18_364
*1733 FILLER_18_371
*1734 FILLER_18_378
*1735 FILLER_18_385
*1736 FILLER_18_392
*1737 FILLER_18_399
*1738 FILLER_18_406
*1739 FILLER_18_413
*1740 FILLER_18_420
*1741 FILLER_18_427
*1742 FILLER_18_429
*1743 FILLER_19_0
*1744 FILLER_19_7
*1745 FILLER_19_14
*1746 FILLER_19_21
*1747 FILLER_19_28
*1748 FILLER_19_35
*1749 FILLER_19_42
*1750 FILLER_19_49
*1751 FILLER_19_56
*1752 FILLER_19_63
*1753 FILLER_19_70
*1754 FILLER_19_77
*1755 FILLER_19_84
*1756 FILLER_19_91
*1757 FILLER_19_98
*1758 FILLER_19_105
*1759 FILLER_19_112
*1760 FILLER_19_119
*1761 FILLER_19_126
*1762 FILLER_19_133
*1763 FILLER_19_140
*1764 FILLER_19_147
*1765 FILLER_19_154
*1766 FILLER_19_161
*1767 FILLER_19_168
*1768 FILLER_19_175
*1769 FILLER_19_182
*1770 FILLER_19_189
*1771 FILLER_19_196
*1772 FILLER_19_203
*1773 FILLER_19_210
*1774 FILLER_19_217
*1775 FILLER_19_224
*1776 FILLER_19_231
*1777 FILLER_19_238
*1778 FILLER_19_245
*1779 FILLER_19_252
*1780 FILLER_19_259
*1781 FILLER_19_266
*1782 FILLER_19_273