*SPEF "ieee 1481-1999"
*DESIGN "tt_um_cejmu"
*DATE "12:59:25 Saturday November 02, 2024"
*VENDOR "The OpenROAD Project"
*PROGRAM "OpenROAD"
*VERSION "v2.0-16649-g40811f37f"
*DESIGN_FLOW "NAME_SCOPE LOCAL" "PIN_CAP NONE"
*DIVIDER /
*DELIMITER :
*BUS_DELIMITER []
*T_UNIT 1 NS
*C_UNIT 1 PF
*R_UNIT 1 OHM
*L_UNIT 1 HENRY

*NAME_MAP
*1 _0000_
*2 _0001_
*3 _0002_
*4 _0003_
*5 _0004_
*6 _0005_
*7 _0006_
*8 _0007_
*9 _0008_
*10 _0009_
*11 _0010_
*12 _0011_
*13 _0012_
*14 _0013_
*15 _0014_
*16 _0015_
*17 _0016_
*18 _0017_
*19 _0018_
*20 _0019_
*21 _0020_
*22 _0021_
*23 _0022_
*24 _0023_
*25 _0024_
*26 _0025_
*27 _0026_
*28 _0027_
*29 _0028_
*30 _0029_
*31 _0030_
*32 _0031_
*33 _0032_
*34 _0033_
*35 _0034_
*36 _0035_
*37 _0036_
*38 _0037_
*39 _0038_
*40 _0039_
*41 _0040_
*42 _0041_
*43 _0042_
*44 _0043_
*45 _0044_
*46 _0045_
*47 _0046_
*48 _0047_
*49 _0048_
*50 _0049_
*51 _0050_
*52 _0051_
*53 _0052_
*54 _0053_
*55 _0054_
*56 _0055_
*57 _0056_
*58 _0057_
*59 _0058_
*60 _0059_
*61 _0060_
*62 _0061_
*63 _0062_
*64 _0063_
*65 _0064_
*66 _0065_
*67 _0066_
*68 _0067_
*69 _0068_
*70 _0069_
*71 _0070_
*72 _0071_
*73 _0072_
*74 _0073_
*75 _0074_
*76 _0075_
*77 _0076_
*78 _0077_
*79 _0078_
*80 _0079_
*81 _0080_
*82 _0081_
*83 _0082_
*84 _0083_
*85 _0084_
*86 _0085_
*87 _0086_
*88 _0087_
*89 _0088_
*90 _0089_
*91 _0090_
*92 _0091_
*93 _0092_
*94 _0093_
*95 _0094_
*96 _0095_
*97 _0096_
*98 _0097_
*99 _0098_
*100 _0099_
*101 _0100_
*102 _0101_
*103 _0102_
*104 _0103_
*105 _0104_
*106 _0105_
*107 _0106_
*108 _0107_
*109 _0108_
*110 _0109_
*111 _0110_
*112 _0111_
*113 _0112_
*114 _0113_
*115 _0114_
*116 _0115_
*117 _0116_
*118 _0117_
*119 _0118_
*120 _0119_
*121 _0120_
*122 _0121_
*123 _0122_
*124 _0123_
*125 _0124_
*126 _0125_
*127 _0126_
*128 _0127_
*129 _0128_
*130 _0129_
*131 _0130_
*132 _0131_
*133 _0132_
*134 _0133_
*135 _0134_
*136 _0135_
*137 _0136_
*138 _0137_
*139 _0138_
*140 _0139_
*141 _0140_
*142 _0141_
*143 _0142_
*144 _0143_
*145 _0144_
*146 _0145_
*147 _0146_
*148 _0147_
*149 _0148_
*150 _0149_
*151 _0150_
*152 _0151_
*153 _0152_
*154 _0153_
*155 _0154_
*156 _0155_
*157 _0156_
*158 _0157_
*159 _0158_
*160 _0159_
*161 _0160_
*162 _0161_
*163 _0162_
*164 _0163_
*165 _0164_
*166 _0165_
*167 _0166_
*168 _0167_
*169 _0168_
*170 _0169_
*171 _0170_
*172 _0171_
*173 _0172_
*174 _0173_
*175 _0174_
*176 _0175_
*177 _0176_
*178 _0177_
*179 _0178_
*180 _0179_
*181 _0180_
*182 _0181_
*183 _0182_
*184 _0183_
*185 _0184_
*186 _0185_
*187 _0186_
*188 _0187_
*189 _0188_
*190 _0189_
*191 _0190_
*192 _0191_
*193 _0192_
*194 _0193_
*195 _0194_
*196 _0195_
*197 _0196_
*198 _0197_
*199 _0198_
*200 _0199_
*201 _0200_
*202 _0201_
*203 _0202_
*204 _0203_
*205 _0204_
*206 _0205_
*207 _0206_
*208 _0207_
*209 _0208_
*210 _0209_
*211 _0210_
*212 _0211_
*213 _0212_
*214 _0213_
*215 _0214_
*216 _0215_
*217 _0216_
*218 _0217_
*219 _0218_
*220 _0219_
*221 _0220_
*222 _0221_
*223 _0222_
*224 _0223_
*225 _0224_
*226 _0225_
*227 _0226_
*228 _0227_
*229 _0228_
*230 _0229_
*231 _0230_
*232 _0231_
*233 _0232_
*234 _0233_
*235 _0234_
*236 _0235_
*237 _0236_
*238 _0237_
*239 _0238_
*240 _0239_
*241 _0240_
*242 _0241_
*243 _0242_
*244 _0243_
*245 _0244_
*246 _0245_
*247 _0246_
*248 _0247_
*249 _0248_
*250 _0249_
*251 _0250_
*252 _0251_
*253 _0252_
*254 _0253_
*255 _0254_
*256 _0255_
*257 _0256_
*258 _0257_
*259 _0258_
*260 _0259_
*261 _0260_
*262 _0261_
*263 _0262_
*264 _0263_
*265 _0264_
*266 _0265_
*267 _0266_
*268 _0267_
*269 _0268_
*270 _0269_
*271 _0270_
*272 _0271_
*273 _0272_
*274 _0273_
*275 _0274_
*276 _0275_
*277 _0276_
*278 _0277_
*279 _0278_
*280 _0279_
*281 _0280_
*282 _0281_
*283 _0282_
*284 _0283_
*285 _0284_
*286 _0285_
*287 _0286_
*288 _0287_
*289 _0288_
*290 _0289_
*291 _0290_
*292 _0291_
*293 _0292_
*294 _0293_
*295 _0294_
*296 _0295_
*297 _0296_
*298 _0297_
*299 _0298_
*300 _0299_
*301 _0300_
*302 _0301_
*303 _0302_
*304 _0303_
*305 _0304_
*306 _0305_
*307 _0306_
*308 _0307_
*309 _0308_
*310 _0309_
*311 _0310_
*312 _0311_
*313 _0312_
*314 _0313_
*315 _0314_
*316 _0315_
*317 _0316_
*318 _0317_
*319 _0318_
*320 _0319_
*321 _0320_
*322 _0321_
*323 _0322_
*324 _0323_
*325 _0324_
*326 _0325_
*327 _0326_
*328 _0327_
*329 _0328_
*330 _0329_
*331 _0330_
*332 _0331_
*333 _0332_
*334 _0333_
*335 _0334_
*336 _0335_
*337 _0336_
*338 _0337_
*339 _0338_
*340 _0339_
*341 _0340_
*342 _0341_
*343 _0342_
*344 _0343_
*345 _0344_
*346 _0345_
*347 _0346_
*348 _0347_
*349 _0348_
*350 _0349_
*351 _0350_
*352 _0351_
*353 _0352_
*354 _0353_
*355 _0354_
*356 _0355_
*357 _0356_
*358 _0357_
*359 _0358_
*360 _0359_
*361 _0360_
*362 _0361_
*363 _0362_
*364 _0363_
*365 _0364_
*366 _0365_
*367 _0366_
*368 _0367_
*369 _0368_
*370 _0369_
*371 _0370_
*372 _0371_
*373 _0372_
*374 _0373_
*375 _0374_
*376 _0375_
*377 _0376_
*378 _0377_
*379 _0378_
*380 _0379_
*381 _0380_
*382 _0381_
*383 _0382_
*384 _0383_
*385 _0384_
*386 _0385_
*387 _0386_
*388 _0387_
*389 _0388_
*390 _0389_
*391 _0390_
*392 _0391_
*393 _0392_
*394 _0393_
*395 _0394_
*396 _0395_
*397 _0396_
*398 _0397_
*399 _0398_
*400 _0399_
*401 _0400_
*402 _0401_
*403 _0402_
*404 _0403_
*405 _0404_
*406 _0405_
*407 _0406_
*408 _0407_
*409 _0408_
*410 _0409_
*411 _0410_
*412 _0411_
*413 _0412_
*414 _0413_
*415 _0414_
*416 _0415_
*417 _0416_
*418 _0417_
*419 _0418_
*420 _0419_
*421 _0420_
*422 _0421_
*423 _0422_
*424 _0423_
*425 _0424_
*426 _0425_
*427 _0426_
*428 _0427_
*429 _0428_
*430 _0429_
*431 _0430_
*432 _0431_
*433 _0432_
*434 _0433_
*435 _0434_
*436 _0435_
*437 _0436_
*438 _0437_
*439 _0438_
*440 _0439_
*441 _0440_
*442 _0441_
*443 _0442_
*444 _0443_
*445 _0444_
*446 _0445_
*447 _0446_
*448 _0447_
*449 _0448_
*450 _0449_
*451 _0450_
*452 _0451_
*453 _0452_
*454 _0453_
*455 _0454_
*456 _0455_
*457 _0456_
*458 _0457_
*459 _0458_
*460 _0459_
*461 _0460_
*462 _0461_
*463 _0462_
*464 _0463_
*465 _0464_
*466 _0465_
*467 _0466_
*468 _0467_
*469 _0468_
*470 _0469_
*471 _0470_
*472 _0471_
*473 _0472_
*474 _0473_
*475 _0474_
*476 _0475_
*477 _0476_
*478 _0477_
*479 _0478_
*480 _0479_
*481 _0480_
*482 _0481_
*483 _0482_
*484 _0483_
*485 _0484_
*486 _0485_
*487 _0486_
*488 _0487_
*489 _0488_
*490 _0489_
*491 _0490_
*492 _0491_
*493 _0492_
*494 _0493_
*495 _0494_
*496 _0495_
*497 _0496_
*498 _0497_
*499 _0498_
*500 _0499_
*501 _0500_
*502 _0501_
*503 _0502_
*504 _0503_
*505 _0504_
*506 _0505_
*507 _0506_
*508 _0507_
*509 _0508_
*510 _0509_
*511 _0510_
*512 _0511_
*513 _0512_
*514 _0513_
*515 _0514_
*516 _0515_
*517 _0516_
*518 _0517_
*519 _0518_
*520 _0519_
*521 _0520_
*522 _0521_
*523 _0522_
*524 _0523_
*525 _0524_
*526 _0525_
*527 _0526_
*528 _0527_
*529 _0528_
*530 _0529_
*531 _0530_
*532 _0531_
*533 _0532_
*534 _0533_
*535 _0534_
*536 _0535_
*537 _0536_
*538 _0537_
*539 _0538_
*540 _0539_
*541 _0540_
*542 _0541_
*543 _0542_
*544 _0543_
*545 _0544_
*546 _0545_
*547 _0546_
*548 _0547_
*549 _0548_
*550 _0549_
*551 _0550_
*552 _0551_
*553 _0552_
*554 _0553_
*555 _0554_
*556 _0555_
*557 _0556_
*558 _0557_
*559 _0558_
*560 _0559_
*561 _0560_
*562 _0561_
*563 _0562_
*564 _0563_
*565 _0564_
*566 _0565_
*567 _0566_
*568 _0567_
*569 _0568_
*570 _0569_
*571 _0570_
*572 _0571_
*573 _0572_
*574 _0573_
*575 _0574_
*576 _0575_
*577 _0576_
*578 _0577_
*579 _0578_
*580 _0579_
*581 _0580_
*582 _0581_
*583 _0582_
*584 _0583_
*585 _0584_
*586 _0585_
*587 _0586_
*588 _0587_
*589 _0588_
*590 _0589_
*591 _0590_
*592 _0591_
*593 _0592_
*594 _0593_
*595 _0594_
*596 _0595_
*597 _0596_
*598 _0597_
*599 _0598_
*600 _0599_
*601 _0600_
*602 _0601_
*603 _0602_
*604 _0603_
*605 _0604_
*606 _0605_
*607 _0606_
*608 _0607_
*609 _0608_
*610 _0609_
*611 _0610_
*612 _0611_
*613 _0612_
*614 _0613_
*615 _0614_
*616 _0615_
*617 _0616_
*618 _0617_
*619 _0618_
*620 _0619_
*621 _0620_
*622 _0621_
*623 _0622_
*624 _0623_
*625 _0624_
*626 _0625_
*627 _0626_
*628 _0627_
*629 _0628_
*630 _0629_
*631 _0630_
*632 _0631_
*633 _0632_
*634 _0633_
*635 _0634_
*636 _0635_
*637 _0636_
*638 _0637_
*639 _0638_
*640 _0639_
*641 _0640_
*642 _0641_
*643 _0642_
*644 _0643_
*645 _0644_
*646 _0645_
*647 _0646_
*648 _0647_
*649 _0648_
*650 _0649_
*651 _0650_
*652 _0651_
*653 _0652_
*654 _0653_
*655 _0654_
*656 _0655_
*657 _0656_
*658 _0657_
*659 _0658_
*660 _0659_
*661 _0660_
*662 _0661_
*663 _0662_
*664 _0663_
*665 _0664_
*666 _0665_
*667 _0666_
*668 _0667_
*669 _0668_
*670 _0669_
*671 _0670_
*672 _0671_
*673 _0672_
*674 _0673_
*675 _0674_
*676 _0675_
*677 _0676_
*678 _0677_
*679 _0678_
*680 _0679_
*681 _0680_
*682 _0681_
*683 _0682_
*684 _0683_
*685 _0684_
*686 _0685_
*687 _0686_
*688 _0687_
*689 _0688_
*690 _0689_
*691 _0690_
*692 _0691_
*693 _0692_
*694 _0693_
*695 _0694_
*696 _0695_
*697 _0696_
*698 _0697_
*699 _0698_
*700 _0699_
*701 _0700_
*702 _0701_
*703 _0702_
*704 _0703_
*705 _0704_
*706 _0705_
*707 _0706_
*708 _0707_
*709 _0708_
*710 _0709_
*711 _0710_
*712 _0711_
*713 _0712_
*714 _0713_
*715 _0714_
*716 _0715_
*717 _0716_
*718 _0717_
*719 _0718_
*720 _0719_
*721 _0720_
*722 _0721_
*723 _0722_
*724 _0723_
*725 _0724_
*726 _0725_
*727 _0726_
*728 _0727_
*729 _0728_
*730 _0729_
*731 _0730_
*732 _0731_
*733 _0732_
*734 _0733_
*735 _0734_
*736 _0735_
*737 _0736_
*738 _0737_
*739 _0738_
*740 _0739_
*741 _0740_
*742 _0741_
*743 _0742_
*744 _0743_
*745 _0744_
*746 _0745_
*747 _0746_
*748 _0747_
*749 _0748_
*750 _0749_
*751 _0750_
*752 _0751_
*753 _0752_
*754 _0753_
*755 _0754_
*756 _0755_
*757 _0756_
*758 _0757_
*759 clknet_0_clk
*760 net73
*761 cla_z\[0\]
*762 cla_z\[10\]
*763 cla_z\[11\]
*764 cla_z\[12\]
*765 cla_z\[13\]
*766 cla_z\[14\]
*767 cla_z\[15\]
*768 cla_z\[16\]
*769 cla_z\[17\]
*770 cla_z\[18\]
*771 cla_z\[19\]
*772 cla_z\[1\]
*773 cla_z\[20\]
*774 cla_z\[21\]
*775 cla_z\[22\]
*776 cla_z\[23\]
*777 cla_z\[2\]
*778 cla_z\[3\]
*779 cla_z\[4\]
*780 cla_z\[5\]
*781 cla_z\[6\]
*782 cla_z\[7\]
*783 cla_z\[8\]
*784 cla_z\[9\]
*785 clk
*786 ena
*787 io_sd\._052_\[0\]
*788 io_sd\._052_\[10\]
*789 io_sd\._052_\[11\]
*790 io_sd\._052_\[12\]
*791 io_sd\._052_\[13\]
*792 io_sd\._052_\[14\]
*793 io_sd\._052_\[15\]
*794 io_sd\._052_\[16\]
*795 io_sd\._052_\[17\]
*796 io_sd\._052_\[18\]
*797 io_sd\._052_\[19\]
*798 io_sd\._052_\[1\]
*799 io_sd\._052_\[20\]
*800 io_sd\._052_\[21\]
*801 io_sd\._052_\[22\]
*802 io_sd\._052_\[23\]
*803 io_sd\._052_\[2\]
*804 io_sd\._052_\[3\]
*805 io_sd\._052_\[4\]
*806 io_sd\._052_\[5\]
*807 io_sd\._052_\[6\]
*808 io_sd\._052_\[7\]
*809 io_sd\._052_\[8\]
*810 io_sd\._052_\[9\]
*811 io_sd\._053_\[0\]
*812 io_sd\._053_\[10\]
*813 io_sd\._053_\[11\]
*814 io_sd\._053_\[12\]
*815 io_sd\._053_\[13\]
*816 io_sd\._053_\[14\]
*817 io_sd\._053_\[15\]
*818 io_sd\._053_\[16\]
*819 io_sd\._053_\[17\]
*820 io_sd\._053_\[18\]
*821 io_sd\._053_\[19\]
*822 io_sd\._053_\[1\]
*823 io_sd\._053_\[20\]
*824 io_sd\._053_\[21\]
*825 io_sd\._053_\[22\]
*826 io_sd\._053_\[23\]
*827 io_sd\._053_\[2\]
*828 io_sd\._053_\[3\]
*829 io_sd\._053_\[4\]
*830 io_sd\._053_\[5\]
*831 io_sd\._053_\[6\]
*832 io_sd\._053_\[7\]
*833 io_sd\._053_\[8\]
*834 io_sd\._053_\[9\]
*835 io_sd\._068_
*836 io_sd\._092_
*837 io_sd\._209_\[0\]
*838 io_sd\._210_\[0\]
*839 io_sd\.input_index\[3\]
*840 io_sd\.input_index\[4\]
*841 io_sd\.input_index\[5\]
*842 io_sd\.output_index\[3\]
*843 io_sd\.output_index\[4\]
*844 io_sd\.output_index\[5\]
*845 rca\.generate_adder_modules\[0\]\.fa\.a
*846 rca\.generate_adder_modules\[0\]\.fa\.b
*847 rca\.generate_adder_modules\[10\]\.fa\.a
*848 rca\.generate_adder_modules\[10\]\.fa\.b
*849 rca\.generate_adder_modules\[11\]\.fa\.a
*850 rca\.generate_adder_modules\[11\]\.fa\.b
*851 rca\.generate_adder_modules\[12\]\.fa\.a
*852 rca\.generate_adder_modules\[12\]\.fa\.b
*853 rca\.generate_adder_modules\[13\]\.fa\.a
*854 rca\.generate_adder_modules\[13\]\.fa\.b
*855 rca\.generate_adder_modules\[14\]\.fa\.a
*856 rca\.generate_adder_modules\[14\]\.fa\.b
*857 rca\.generate_adder_modules\[15\]\.fa\.a
*858 rca\.generate_adder_modules\[15\]\.fa\.b
*859 rca\.generate_adder_modules\[16\]\.fa\.a
*860 rca\.generate_adder_modules\[16\]\.fa\.b
*861 rca\.generate_adder_modules\[17\]\.fa\.a
*862 rca\.generate_adder_modules\[17\]\.fa\.b
*863 rca\.generate_adder_modules\[18\]\.fa\.a
*864 rca\.generate_adder_modules\[18\]\.fa\.b
*865 rca\.generate_adder_modules\[19\]\.fa\.a
*866 rca\.generate_adder_modules\[19\]\.fa\.b
*867 rca\.generate_adder_modules\[1\]\.fa\.a
*868 rca\.generate_adder_modules\[1\]\.fa\.b
*869 rca\.generate_adder_modules\[20\]\.fa\.a
*870 rca\.generate_adder_modules\[20\]\.fa\.b
*871 rca\.generate_adder_modules\[21\]\.fa\.a
*872 rca\.generate_adder_modules\[21\]\.fa\.b
*873 rca\.generate_adder_modules\[22\]\.fa\.a
*874 rca\.generate_adder_modules\[22\]\.fa\.b
*875 rca\.generate_adder_modules\[23\]\.fa\.a
*876 rca\.generate_adder_modules\[23\]\.fa\.b
*877 rca\.generate_adder_modules\[23\]\.fa\.c_out
*878 rca\.generate_adder_modules\[2\]\.fa\.a
*879 rca\.generate_adder_modules\[2\]\.fa\.b
*880 rca\.generate_adder_modules\[3\]\.fa\.a
*881 rca\.generate_adder_modules\[3\]\.fa\.b
*882 rca\.generate_adder_modules\[4\]\.fa\.a
*883 rca\.generate_adder_modules\[4\]\.fa\.b
*884 rca\.generate_adder_modules\[5\]\.fa\.a
*885 rca\.generate_adder_modules\[5\]\.fa\.b
*886 rca\.generate_adder_modules\[6\]\.fa\.a
*887 rca\.generate_adder_modules\[6\]\.fa\.b
*888 rca\.generate_adder_modules\[7\]\.fa\.a
*889 rca\.generate_adder_modules\[7\]\.fa\.b
*890 rca\.generate_adder_modules\[8\]\.fa\.a
*891 rca\.generate_adder_modules\[8\]\.fa\.b
*892 rca\.generate_adder_modules\[9\]\.fa\.a
*893 rca\.generate_adder_modules\[9\]\.fa\.b
*894 rst_n
*895 ui_in[0]
*896 ui_in[1]
*897 ui_in[2]
*898 ui_in[3]
*899 ui_in[4]
*900 ui_in[5]
*901 ui_in[6]
*902 ui_in[7]
*903 uio_in[0]
*904 uio_in[1]
*905 uio_in[2]
*906 uio_in[3]
*907 uio_in[4]
*908 uio_in[5]
*909 uio_in[6]
*910 uio_in[7]
*911 uio_oe[0]
*912 uio_oe[1]
*913 uio_oe[2]
*914 uio_oe[3]
*915 uio_oe[4]
*916 uio_oe[5]
*917 uio_oe[6]
*918 uio_oe[7]
*919 uio_out[0]
*920 uio_out[1]
*921 uio_out[2]
*922 uio_out[3]
*923 uio_out[4]
*924 uio_out[5]
*925 uio_out[6]
*926 uio_out[7]
*927 uo_out[0]
*928 uo_out[1]
*929 uo_out[2]
*930 uo_out[3]
*931 uo_out[4]
*932 uo_out[5]
*933 uo_out[6]
*934 uo_out[7]
*935 cla/_0341_
*936 cla/_0342_
*937 cla/_0343_
*938 cla/_0344_
*939 cla/_0345_
*940 cla/_0346_
*941 cla/_0347_
*942 cla/_0348_
*943 cla/_0349_
*944 cla/_0350_
*945 cla/_0351_
*946 cla/_0352_
*947 cla/_0353_
*948 cla/_0354_
*949 cla/_0355_
*950 cla/_0356_
*951 cla/_0357_
*952 cla/_0358_
*953 cla/_0359_
*954 cla/_0360_
*955 cla/_0361_
*956 cla/_0362_
*957 cla/_0363_
*958 cla/_0364_
*959 cla/_0365_
*960 cla/_0366_
*961 cla/_0367_
*962 cla/_0368_
*963 cla/_0369_
*964 cla/_0370_
*965 cla/_0371_
*966 cla/_0372_
*967 cla/_0373_
*968 cla/_0374_
*969 cla/_0375_
*970 cla/_0376_
*971 cla/_0377_
*972 cla/_0378_
*973 cla/_0379_
*974 cla/_0380_
*975 cla/_0381_
*976 cla/_0382_
*977 cla/_0383_
*978 cla/_0384_
*979 cla/_0385_
*980 cla/_0386_
*981 cla/_0387_
*982 cla/_0388_
*983 cla/_0389_
*984 cla/_0390_
*985 cla/_0391_
*986 cla/_0392_
*987 cla/_0393_
*988 cla/_0394_
*989 cla/_0395_
*990 cla/_0396_
*991 cla/_0397_
*992 cla/_0398_
*993 cla/_0399_
*994 cla/_0400_
*995 cla/_0401_
*996 cla/_0402_
*997 cla/_0403_
*998 cla/_0404_
*999 cla/_0405_
*1000 cla/_0406_
*1001 cla/_0407_
*1002 cla/_0408_
*1003 cla/_0409_
*1004 cla/_0410_
*1005 cla/_0411_
*1006 cla/_0412_
*1007 cla/_0413_
*1008 cla/_0414_
*1009 cla/_0415_
*1010 cla/_0416_
*1011 cla/_0417_
*1012 cla/_0418_
*1013 cla/_0419_
*1014 cla/_0420_
*1015 cla/_0421_
*1016 cla/_0422_
*1017 cla/_0423_
*1018 cla/_0424_
*1019 cla/_0425_
*1020 cla/_0426_
*1021 cla/_0427_
*1022 cla/_0428_
*1023 cla/_0429_
*1024 cla/_0430_
*1025 cla/_0431_
*1026 cla/_0432_
*1027 cla/_0433_
*1028 cla/_0434_
*1029 cla/_0435_
*1030 cla/_0436_
*1031 cla/_0437_
*1032 cla/_0438_
*1033 cla/_0439_
*1034 cla/_0440_
*1035 cla/_0441_
*1036 cla/_0442_
*1037 cla/_0443_
*1038 cla/_0444_
*1039 cla/_0445_
*1040 cla/_0446_
*1041 cla/_0447_
*1042 cla/_0448_
*1043 cla/_0449_
*1044 cla/_0450_
*1045 cla/_0451_
*1046 cla/_0452_
*1047 cla/_0453_
*1048 cla/_0454_
*1049 cla/_0455_
*1050 cla/_0456_
*1051 cla/_0457_
*1052 cla/_0458_
*1053 cla/_0459_
*1054 cla/_0460_
*1055 cla/_0461_
*1056 cla/_0462_
*1057 cla/_0463_
*1058 cla/_0464_
*1059 cla/_0465_
*1060 cla/_0466_
*1061 cla/_0467_
*1062 cla/_0468_
*1063 cla/_0469_
*1064 cla/_0470_
*1065 cla/_0471_
*1066 cla/_0472_
*1067 cla/_0473_
*1068 cla/_0474_
*1069 cla/_0475_
*1070 cla/_0476_
*1071 cla/_0477_
*1072 cla/_0478_
*1073 cla/_0479_
*1074 cla/_0480_
*1075 cla/_0481_
*1076 cla/_0482_
*1077 cla/_0483_
*1078 cla/_0484_
*1079 cla/_0485_
*1080 cla/_0486_
*1081 cla/_0487_
*1082 cla/_0488_
*1083 cla/_0489_
*1084 cla/_0490_
*1085 cla/_0491_
*1086 cla/_0492_
*1087 cla/_0493_
*1088 cla/_0494_
*1089 cla/_0495_
*1090 cla/_0496_
*1091 cla/_0497_
*1092 cla/_0498_
*1093 cla/_0499_
*1094 cla/_0500_
*1095 cla/_0501_
*1096 cla/_0502_
*1097 cla/_0503_
*1098 cla/_0504_
*1099 cla/_0505_
*1100 cla/_0506_
*1101 cla/_0507_
*1102 cla/_0508_
*1103 cla/_0509_
*1104 cla/_0510_
*1105 cla/_0511_
*1106 cla/_0512_
*1107 cla/_0513_
*1108 cla/_0514_
*1109 cla/_0515_
*1110 cla/_0516_
*1111 cla/_0517_
*1112 cla/_0518_
*1113 cla/_0519_
*1114 cla/_0520_
*1115 cla/_0521_
*1116 cla/_0522_
*1117 cla/_0523_
*1118 cla/_0524_
*1119 cla/_0525_
*1120 cla/_0526_
*1121 cla/_0527_
*1122 cla/_0528_
*1123 cla/_0529_
*1124 cla/_0530_
*1125 cla/_0531_
*1126 cla/_0532_
*1127 cla/_0533_
*1128 cla/_0534_
*1129 cla/_0535_
*1130 cla/_0536_
*1131 cla/_0537_
*1132 cla/_0538_
*1133 cla/_0539_
*1134 cla/_0540_
*1135 cla/_0541_
*1136 cla/_0542_
*1137 cla/_0543_
*1138 cla/_0544_
*1139 cla/_0545_
*1140 cla/_0546_
*1141 cla/_0547_
*1142 cla/_0548_
*1143 cla/_0549_
*1144 cla/_0550_
*1145 cla/_0551_
*1146 cla/_0552_
*1147 cla/_0553_
*1148 cla/_0554_
*1149 cla/_0555_
*1150 cla/_0556_
*1151 cla/_0557_
*1152 cla/_0558_
*1153 cla/_0559_
*1154 cla/_0560_
*1155 cla/_0561_
*1156 cla/_0562_
*1157 cla/_0563_
*1158 cla/_0564_
*1159 cla/_0565_
*1160 cla/_0566_
*1161 cla/_0567_
*1162 cla/_0568_
*1163 cla/_0569_
*1164 cla/_0570_
*1165 cla/_0571_
*1166 cla/_0572_
*1167 cla/_0573_
*1168 cla/_0574_
*1169 cla/_0575_
*1170 cla/_0576_
*1171 cla/_0577_
*1172 cla/_0578_
*1173 cla/_0579_
*1174 cla/_0580_
*1175 cla/_0581_
*1176 cla/_0582_
*1177 cla/_0583_
*1178 cla/_0584_
*1179 cla/_0585_
*1180 cla/_0586_
*1181 cla/_0587_
*1182 cla/_0588_
*1183 cla/_0589_
*1184 cla/_0590_
*1185 cla/_0591_
*1186 cla/_0592_
*1187 cla/_0593_
*1188 cla/_0594_
*1189 cla/_0595_
*1190 cla/_0596_
*1191 cla/_0597_
*1192 cla/_0598_
*1193 cla/_0599_
*1194 cla/_0600_
*1195 cla/_0601_
*1196 cla/_0602_
*1197 cla/_0603_
*1198 cla/_0604_
*1199 cla/_0605_
*1200 cla/_0606_
*1201 cla/_0607_
*1202 cla/_0608_
*1203 cla/_0609_
*1204 cla/_0610_
*1205 cla/_0611_
*1206 cla/_0612_
*1207 cla/_0613_
*1208 cla/_0614_
*1209 cla/_0615_
*1210 cla/_0616_
*1211 cla/_0617_
*1212 cla/_0618_
*1213 cla/_0619_
*1214 cla/_0620_
*1215 cla/_0621_
*1216 cla/_0622_
*1217 cla/_0623_
*1218 cla/_0624_
*1219 cla/_0625_
*1220 cla/_0626_
*1221 cla/_0627_
*1222 cla/_0628_
*1223 cla/_0629_
*1224 cla/_0630_
*1225 cla/_0631_
*1226 cla/_0632_
*1227 cla/_0633_
*1228 cla/_0634_
*1229 cla/_0635_
*1230 cla/_0636_
*1231 cla/_0637_
*1232 cla/_0638_
*1233 cla/_0639_
*1234 cla/_0640_
*1235 cla/_0641_
*1236 cla/_0642_
*1237 cla/_0643_
*1238 cla/_0644_
*1239 cla/_0645_
*1240 cla/_0646_
*1241 cla/_0647_
*1242 cla/_0648_
*1243 cla/_0649_
*1244 cla/_0650_
*1245 cla/_0651_
*1246 cla/_0652_
*1247 cla/_0653_
*1248 cla/_0654_
*1249 cla/_0655_
*1250 cla/_0656_
*1251 cla/_0657_
*1252 cla/_0658_
*1253 cla/_0659_
*1254 cla/_0660_
*1255 cla/_0661_
*1256 cla/_0662_
*1257 cla/_0663_
*1258 cla/_0664_
*1259 cla/_0665_
*1260 cla/_0666_
*1261 cla/_0667_
*1262 cla/_0668_
*1263 cla/_0669_
*1264 cla/_0670_
*1265 cla/_0671_
*1266 cla/_0672_
*1267 cla/_0673_
*1268 cla/_0674_
*1269 cla/_0675_
*1270 cla/_0676_
*1271 cla/_0677_
*1272 cla/_0678_
*1273 cla/_0679_
*1274 cla/_0680_
*1275 cla/_0681_
*1276 cla/_0682_
*1277 cla/_0683_
*1278 cla/generate_adder_modules\[0\]\.fa_i\._2_
*1279 cla/generate_adder_modules\[10\]\.fa_i\.s
*1280 cla/generate_adder_modules\[11\]\.fa_i\.s
*1281 cla/generate_adder_modules\[12\]\.fa_i\.s
*1282 cla/generate_adder_modules\[13\]\.fa_i\.s
*1283 cla/generate_adder_modules\[14\]\.fa_i\.s
*1284 cla/generate_adder_modules\[15\]\.fa_i\.s
*1285 cla/generate_adder_modules\[16\]\.fa_i\.s
*1286 cla/generate_adder_modules\[17\]\.fa_i\.s
*1287 cla/generate_adder_modules\[18\]\.fa_i\.s
*1288 cla/generate_adder_modules\[19\]\.fa_i\.s
*1289 cla/generate_adder_modules\[1\]\.fa_i\.s
*1290 cla/generate_adder_modules\[20\]\.fa_i\.s
*1291 cla/generate_adder_modules\[21\]\.fa_i\.s
*1292 cla/generate_adder_modules\[22\]\.fa_i\.s
*1293 cla/generate_adder_modules\[23\]\.fa_i\.s
*1294 cla/generate_adder_modules\[2\]\.fa_i\.s
*1295 cla/generate_adder_modules\[3\]\.fa_i\.s
*1296 cla/generate_adder_modules\[4\]\.fa_i\.s
*1297 cla/generate_adder_modules\[5\]\.fa_i\.s
*1298 cla/generate_adder_modules\[6\]\.fa_i\.s
*1299 cla/generate_adder_modules\[7\]\.fa_i\.s
*1300 cla/generate_adder_modules\[8\]\.fa_i\.s
*1301 cla/generate_adder_modules\[9\]\.fa_i\.s
*1304 net1
*1305 net2
*1306 net3
*1307 net4
*1308 net5
*1309 net6
*1310 net7
*1311 net8
*1312 net9
*1313 net10
*1314 net11
*1315 net12
*1316 net13
*1317 net14
*1318 net15
*1319 net16
*1320 net17
*1321 net18
*1322 net19
*1323 net20
*1324 net21
*1325 net22
*1326 net23
*1327 net24
*1328 net25
*1329 net26
*1330 net27
*1331 net28
*1332 net29
*1333 net30
*1334 net31
*1335 net32
*1336 net33
*1337 net34
*1338 net35
*1339 net36
*1340 net37
*1341 net38
*1342 net39
*1343 net40
*1344 net41
*1345 net42
*1346 net43
*1347 net44
*1348 net45
*1349 net46
*1350 net47
*1351 net48
*1352 net49
*1353 net50
*1354 net51
*1355 net52
*1356 net53
*1357 net54
*1358 net55
*1359 net56
*1360 net57
*1361 net58
*1362 net59
*1363 net60
*1364 net61
*1365 net62
*1366 net63
*1367 net64
*1368 net65
*1369 net66
*1370 net67
*1371 net68
*1372 net69
*1373 net70
*1374 net71
*1375 net72
*1376 net74
*1377 net75
*1378 net76
*1379 net77
*1380 net78
*1381 net79
*1382 net80
*1383 net81
*1384 net82
*1385 net83
*1386 net84
*1387 net85
*1388 net86
*1389 net87
*1390 net88
*1391 net89
*1392 net90
*1393 net91
*1394 net92
*1395 net93
*1396 net94
*1397 net95
*1398 net96
*1399 net97
*1400 net98
*1401 net99
*1402 net100
*1403 net101
*1404 net102
*1405 net103
*1406 net104
*1407 net105
*1408 net106
*1409 net107
*1410 net108
*1411 net109
*1412 net110
*1413 net111
*1414 net112
*1415 net113
*1416 net114
*1417 net115
*1418 net116
*1419 net117
*1420 net118
*1421 net119
*1422 net120
*1423 net121
*1424 net122
*1425 net123
*1426 net124
*1427 net125
*1428 net126
*1429 net127
*1430 net128
*1431 net129
*1432 net130
*1433 net131
*1434 net132
*1435 net133
*1436 net134
*1437 net135
*1438 net136
*1439 net137
*1440 net138
*1441 net139
*1442 net140
*1443 clknet_4_0_0_clk
*1444 clknet_4_1_0_clk
*1445 clknet_4_2_0_clk
*1446 clknet_4_3_0_clk
*1447 clknet_4_4_0_clk
*1448 clknet_4_5_0_clk
*1449 clknet_4_6_0_clk
*1450 clknet_4_7_0_clk
*1451 clknet_4_8_0_clk
*1452 clknet_4_9_0_clk
*1453 clknet_4_10_0_clk
*1454 clknet_4_11_0_clk
*1455 clknet_4_12_0_clk
*1456 clknet_4_13_0_clk
*1457 clknet_4_14_0_clk
*1458 clknet_4_15_0_clk
*1459 _0760_
*1460 _0761_
*1461 _0762_
*1462 _0763_
*1463 _0764_
*1464 _0765_
*1465 _0766_
*1466 _0767_
*1467 _0768_
*1468 _0769_
*1469 _0770_
*1470 _0771_
*1471 _0772_
*1472 _0773_
*1473 _0774_
*1474 _0775_
*1475 _0776_
*1476 _0777_
*1477 _0778_
*1478 _0779_
*1479 _0780_
*1480 _0781_
*1481 _0782_
*1482 _0783_
*1483 _0784_
*1484 _0785_
*1485 _0786_
*1486 _0787_
*1487 _0788_
*1488 _0789_
*1489 _0790_
*1490 _0791_
*1491 _0792_
*1492 _0793_
*1493 _0794_
*1494 _0795_
*1495 _0796_
*1496 _0797_
*1497 _0798_
*1498 _0799_
*1499 _0800_
*1500 _0801_
*1501 _0802_
*1502 _0803_
*1503 _0804_
*1504 _0805_
*1505 _0806_
*1506 _0807_
*1507 _0808_
*1508 _0809_
*1509 _0810_
*1510 _0811_
*1511 _0812_
*1512 _0813_
*1513 _0814_
*1514 _0815_
*1515 _0816_
*1516 _0817_
*1517 _0818_
*1518 _0819_
*1519 _0820_
*1520 _0821_
*1521 _0822_
*1522 _0823_
*1523 _0824_
*1524 _0825_
*1525 _0826_
*1526 _0827_
*1527 _0828_
*1528 _0829_
*1529 _0830_
*1530 _0831_
*1531 _0832_
*1532 _0833_
*1533 _0834_
*1534 _0835_
*1535 _0836_
*1536 _0837_
*1537 _0838_
*1538 _0839_
*1539 _0840_
*1540 _0841_
*1541 _0842_
*1542 _0843_
*1543 _0844_
*1544 _0845_
*1545 _0846_
*1546 _0847_
*1547 _0848_
*1548 _0849_
*1549 _0850_
*1550 _0851_
*1551 _0852_
*1552 _0853_
*1553 _0854_
*1554 _0855_
*1555 _0856_
*1556 _0857_
*1557 _0858_
*1558 _0859_
*1559 _0860_
*1560 _0861_
*1561 _0862_
*1562 _0863_
*1563 _0864_
*1564 _0865_
*1565 _0866_
*1566 _0867_
*1567 _0868_
*1568 _0869_
*1569 _0870_
*1570 _0871_
*1571 _0872_
*1572 _0873_
*1573 _0874_
*1574 _0875_
*1575 _0876_
*1576 _0877_
*1577 _0878_
*1578 _0879_
*1579 _0880_
*1580 _0881_
*1581 _0882_
*1582 _0883_
*1583 _0884_
*1584 _0885_
*1585 _0886_
*1586 _0887_
*1587 _0888_
*1588 _0889_
*1589 _0890_
*1590 _0891_
*1591 _0892_
*1592 _0893_
*1593 _0894_
*1594 _0895_
*1595 _0896_
*1596 _0897_
*1597 _0898_
*1598 _0899_
*1599 _0900_
*1600 _0901_
*1601 _0902_
*1602 _0903_
*1603 _0904_
*1604 _0905_
*1605 _0906_
*1606 _0907_
*1607 _0908_
*1608 _0909_
*1609 _0910_
*1610 _0911_
*1611 _0912_
*1612 _0913_
*1613 _0914_
*1614 _0915_
*1615 _0916_
*1616 _0917_
*1617 _0918_
*1618 _0919_
*1619 _0920_
*1620 _0921_
*1621 _0922_
*1622 _0923_
*1623 _0924_
*1624 _0925_
*1625 _0926_
*1626 _0927_
*1627 _0928_
*1628 _0929_
*1629 _0930_
*1630 _0931_
*1631 _0932_
*1632 _0933_
*1633 _0934_
*1634 _0935_
*1635 _0936_
*1636 _0937_
*1637 _0938_
*1638 _0939_
*1639 _0940_
*1640 _0941_
*1641 _0942_
*1642 _0943_
*1643 _0944_
*1644 _0945_
*1645 _0946_
*1646 _0947_
*1647 _0948_
*1648 _0949_
*1649 _0950_
*1650 _0951_
*1651 _0952_
*1652 _0953_
*1653 _0954_
*1654 _0955_
*1655 _0956_
*1656 _0957_
*1657 _0958_
*1658 _0959_
*1659 _0960_
*1660 _0961_
*1661 _0962_
*1662 _0963_
*1663 _0964_
*1664 _0965_
*1665 _0966_
*1666 _0967_
*1667 _0968_
*1668 _0969_
*1669 _0970_
*1670 _0971_
*1671 _0972_
*1672 _0973_
*1673 _0974_
*1674 _0975_
*1675 _0976_
*1676 _0977_
*1677 _0978_
*1678 _0979_
*1679 _0980_
*1680 _0981_
*1681 _0982_
*1682 _0983_
*1683 _0984_
*1684 _0985_
*1685 _0986_
*1686 _0987_
*1687 _0988_
*1688 _0989_
*1689 _0990_
*1690 _0991_
*1691 _0992_
*1692 _0993_
*1693 _0994_
*1694 _0995_
*1695 _0996_
*1696 _0997_
*1697 _0998_
*1698 _0999_
*1699 _1000_
*1700 _1001_
*1701 _1002_
*1702 _1003_
*1703 _1004_
*1704 _1005_
*1705 _1006_
*1706 _1007_
*1707 _1008_
*1708 _1009_
*1709 _1010_
*1710 _1011_
*1711 _1012_
*1712 _1013_
*1713 _1014_
*1714 _1015_
*1715 _1016_
*1716 _1017_
*1717 _1018_
*1718 _1019_
*1719 _1020_
*1720 _1021_
*1721 _1022_
*1722 _1023_
*1723 _1024_
*1724 _1025_
*1725 _1026_
*1726 _1027_
*1727 _1028_
*1728 _1029_
*1729 _1030_
*1730 _1031_
*1731 _1032_
*1732 _1033_
*1733 _1034_
*1734 _1035_
*1735 _1036_
*1736 _1037_
*1737 _1038_
*1738 _1039_
*1739 _1040_
*1740 _1041_
*1741 _1042_
*1742 _1043_
*1743 _1044_
*1744 _1045_
*1745 _1046_
*1746 _1047_
*1747 _1048_
*1748 _1049_
*1749 _1050_
*1750 _1051_
*1751 _1052_
*1752 _1053_
*1753 _1054_
*1754 _1055_
*1755 _1056_
*1756 _1057_
*1757 _1058_
*1758 _1059_
*1759 _1060_
*1760 _1061_
*1761 _1062_
*1762 _1063_
*1763 _1064_
*1764 _1065_
*1765 _1066_
*1766 _1067_
*1767 _1068_
*1768 _1069_
*1769 _1070_
*1770 _1071_
*1771 _1072_
*1772 _1073_
*1773 _1074_
*1774 _1075_
*1775 _1076_
*1776 _1077_
*1777 _1078_
*1778 _1079_
*1779 _1080_
*1780 _1081_
*1781 _1082_
*1782 _1083_
*1783 _1084_
*1784 _1085_
*1785 _1086_
*1786 _1087_
*1787 _1088_
*1788 _1089_
*1789 _1090_
*1790 _1091_
*1791 _1092_
*1792 _1093_
*1793 _1094_
*1794 _1095_
*1795 _1096_
*1796 _1097_
*1797 _1098_
*1798 _1099_
*1799 _1100_
*1800 _1101_
*1801 _1102_
*1802 _1103_
*1803 _1104_
*1804 _1105_
*1805 _1106_
*1806 _1107_
*1807 _1108_
*1808 _1109_
*1809 _1110_
*1810 _1111_
*1811 _1112_
*1812 _1113_
*1813 _1114_
*1814 _1115_
*1815 _1116_
*1816 _1117_
*1817 _1118_
*1818 _1119_
*1819 _1120_
*1820 _1121_
*1821 _1122_
*1822 _1123_
*1823 _1124_
*1824 _1125_
*1825 _1126_
*1826 _1127_
*1827 _1128_
*1828 _1129_
*1829 _1130_
*1830 _1131_
*1831 _1132_
*1832 _1133_
*1833 _1134_
*1834 _1135_
*1835 _1136_
*1836 _1137_
*1837 _1138_
*1838 _1139_
*1839 _1140_
*1840 _1141_
*1841 _1142_
*1842 _1143_
*1843 _1144_
*1844 _1145_
*1845 _1146_
*1846 _1147_
*1847 _1148_
*1848 _1149_
*1849 _1150_
*1850 _1151_
*1851 _1152_
*1852 _1153_
*1853 _1154_
*1854 _1155_
*1855 _1156_
*1856 _1157_
*1857 _1158_
*1858 _1159_
*1859 _1160_
*1860 _1161_
*1861 _1162_
*1862 _1163_
*1863 _1164_
*1864 _1165_
*1865 _1166_
*1866 _1167_
*1867 _1168_
*1868 _1169_
*1869 _1170_
*1870 _1171_
*1871 _1172_
*1872 _1173_
*1873 _1174_
*1874 _1175_
*1875 _1176_
*1876 _1177_
*1877 _1178_
*1878 _1179_
*1879 _1180_
*1880 _1181_
*1881 _1182_
*1882 _1183_
*1883 _1184_
*1884 _1185_
*1885 _1186_
*1886 _1187_
*1887 _1188_
*1888 _1189_
*1889 _1190_
*1890 _1191_
*1891 _1192_
*1892 _1193_
*1893 _1194_
*1894 _1195_
*1895 _1196_
*1896 _1197_
*1897 _1198_
*1898 _1199_
*1899 _1200_
*1900 _1201_
*1901 _1202_
*1902 _1203_
*1903 _1204_
*1904 _1205_
*1905 _1206_
*1906 _1207_
*1907 _1208_
*1908 _1209_
*1909 _1210_
*1910 _1211_
*1911 _1212_
*1912 _1213_
*1913 _1214_
*1914 _1215_
*1915 _1216_
*1916 _1217_
*1917 _1218_
*1918 _1219_
*1919 _1220_
*1920 _1221_
*1921 _1222_
*1922 _1223_
*1923 _1224_
*1924 _1225_
*1925 _1226_
*1926 _1227_
*1927 _1228_
*1928 _1229_
*1929 _1230_
*1930 _1231_
*1931 _1232_
*1932 _1233_
*1933 _1234_
*1934 _1235_
*1935 _1236_
*1936 _1237_
*1937 _1238_
*1938 _1239_
*1939 _1240_
*1940 _1241_
*1941 _1242_
*1942 _1243_
*1943 _1244_
*1944 _1245_
*1945 _1246_
*1946 _1247_
*1947 _1248_
*1948 _1249_
*1949 _1250_
*1950 _1251_
*1951 _1252_
*1952 _1253_
*1953 _1254_
*1954 _1255_
*1955 _1256_
*1956 _1257_
*1957 _1258_
*1958 _1259_
*1959 _1260_
*1960 _1261_
*1961 _1262_
*1962 _1263_
*1963 _1264_
*1964 _1265_
*1965 _1266_
*1966 _1267_
*1967 _1268_
*1968 _1269_
*1969 _1270_
*1970 _1271_
*1971 _1272_
*1972 _1273_
*1973 _1274_
*1974 _1275_
*1975 _1276_
*1976 _1277_
*1977 _1278_
*1978 _1279_
*1979 _1280_
*1980 _1281_
*1981 _1282_
*1982 _1283_
*1983 _1284_
*1984 _1285_
*1985 _1286_
*1986 _1287_
*1987 _1288_
*1988 _1289_
*1989 _1290_
*1990 _1291_
*1991 _1292_
*1992 _1293_
*1993 _1294_
*1994 _1295_
*1995 _1296_
*1996 _1297_
*1997 _1298_