*SPEF "ieee 1481-1999"
*DESIGN "tt_um_gray_sobel"
*DATE "18:45:39 Monday November 04, 2024"
*VENDOR "The OpenROAD Project"
*PROGRAM "OpenROAD"
*VERSION "v2.0-16649-g40811f37f"
*DESIGN_FLOW "NAME_SCOPE LOCAL" "PIN_CAP NONE"
*DIVIDER /
*DELIMITER :
*BUS_DELIMITER []
*T_UNIT 1 NS
*C_UNIT 1 PF
*R_UNIT 1 OHM
*L_UNIT 1 HENRY

*NAME_MAP
*1 LFSR_enable_i_sync
*2 _0000_
*3 _0001_
*4 _0002_
*5 _0003_
*6 _0004_
*7 _0005_
*8 _0006_
*9 _0007_
*10 _0008_
*11 _0009_
*12 _0010_
*13 _0011_
*14 _0012_
*15 _0013_
*16 _0014_
*17 _0015_
*18 _0016_
*19 _0017_
*20 _0018_
*21 _0019_
*22 _0020_
*23 _0021_
*24 _0022_
*25 _0023_
*26 _0024_
*27 _0025_
*28 _0026_
*29 _0027_
*30 _0028_
*31 _0029_
*32 _0030_
*33 _0031_
*34 _0032_
*35 _0033_
*36 _0034_
*37 _0035_
*38 _0036_
*39 _0037_
*40 _0038_
*41 _0039_
*42 _0040_
*43 _0041_
*44 _0042_
*45 _0043_
*46 _0044_
*47 _0045_
*48 _0046_
*49 _0047_
*50 _0048_
*51 _0049_
*52 _0050_
*53 _0051_
*54 _0052_
*55 _0053_
*56 _0054_
*57 _0055_
*58 _0056_
*59 _0057_
*60 _0058_
*61 _0059_
*62 _0060_
*63 _0061_
*64 _0062_
*65 _0063_
*66 _0064_
*67 _0065_
*68 _0066_
*69 _0067_
*70 _0068_
*71 _0069_
*72 _0070_
*73 _0071_
*74 _0072_
*75 _0073_
*76 _0074_
*77 _0075_
*78 _0076_
*79 _0077_
*80 _0078_
*81 _0079_
*82 _0080_
*83 _0081_
*84 _0082_
*85 _0083_
*86 _0084_
*87 _0085_
*88 _0086_
*89 _0087_
*90 _0088_
*91 _0089_
*92 _0090_
*93 _0091_
*94 _0092_
*95 _0093_
*96 _0094_
*97 _0095_
*98 _0096_
*99 _0097_
*100 _0098_
*101 _0099_
*102 _0100_
*103 _0101_
*104 _0102_
*105 _0103_
*106 _0104_
*107 _0105_
*108 _0106_
*109 _0107_
*110 _0108_
*111 _0109_
*112 _0110_
*113 _0111_
*114 _0112_
*115 _0113_
*116 _0114_
*117 _0115_
*118 _0116_
*119 _0117_
*120 _0118_
*121 _0119_
*122 _0120_
*123 _0121_
*124 _0122_
*125 _0123_
*126 _0124_
*127 _0125_
*128 _0126_
*129 _0127_
*130 _0128_
*131 _0129_
*132 _0130_
*133 _0131_
*134 _0132_
*135 _0133_
*136 _0134_
*137 _0135_
*138 _0136_
*139 _0137_
*140 _0138_
*141 _0139_
*142 _0140_
*143 _0141_
*144 _0142_
*145 _0143_
*146 _0144_
*147 _0145_
*148 _0146_
*149 _0147_
*150 _0148_
*151 _0149_
*152 _0150_
*153 _0151_
*154 _0152_
*155 _0153_
*156 _0154_
*157 _0155_
*158 _0156_
*159 _0157_
*160 _0158_
*161 _0159_
*162 _0160_
*163 _0161_
*164 _0162_
*165 _0163_
*166 _0164_
*167 _0165_
*168 _0166_
*169 _0167_
*170 _0168_
*171 _0169_
*172 _0170_
*173 _0171_
*174 _0172_
*175 _0173_
*176 _0174_
*177 _0175_
*178 _0176_
*179 _0177_
*180 _0178_
*181 _0179_
*182 _0180_
*183 _0181_
*184 _0182_
*185 _0183_
*186 _0184_
*187 _0185_
*188 _0186_
*189 _0187_
*190 _0188_
*191 _0189_
*192 _0190_
*193 _0191_
*194 _0192_
*195 _0193_
*196 _0194_
*197 _0195_
*198 _0196_
*199 _0197_
*200 _0198_
*201 _0199_
*202 _0200_
*203 _0201_
*204 _0202_
*205 _0203_
*206 _0204_
*207 _0205_
*208 _0206_
*209 _0207_
*210 _0208_
*211 _0209_
*212 _0210_
*213 _0211_
*214 _0212_
*215 _0213_
*216 _0214_
*217 _0215_
*218 _0216_
*219 _0217_
*220 _0218_
*221 _0219_
*222 _0220_
*223 _0221_
*224 _0222_
*225 _0223_
*226 _0224_
*227 _0225_
*228 _0226_
*229 _0227_
*230 _0228_
*231 _0229_
*232 _0230_
*233 _0231_
*234 _0232_
*235 _0233_
*236 _0234_
*237 _0235_
*238 _0236_
*239 _0237_
*240 _0238_
*241 _0239_
*242 _0240_
*243 _0241_
*244 _0242_
*245 _0243_
*246 _0244_
*247 _0245_
*248 _0246_
*249 _0247_
*250 _0248_
*251 _0249_
*252 _0250_
*253 _0251_
*254 _0252_
*255 _0253_
*256 _0254_
*257 _0255_
*258 _0256_
*259 _0257_
*260 _0258_
*261 _0259_
*262 _0260_
*263 _0261_
*264 _0262_
*265 _0263_
*266 _0264_
*267 _0265_
*268 _0266_
*269 _0267_
*270 _0268_
*271 _0269_
*272 _0270_
*273 _0271_
*274 _0272_
*275 _0273_
*276 _0274_
*277 _0275_
*278 _0276_
*279 _0277_
*280 _0278_
*281 _0279_
*282 _0280_
*283 _0281_
*284 _0282_
*285 _0283_
*286 _0284_
*287 _0285_
*288 _0286_
*289 _0287_
*290 _0288_
*291 _0289_
*292 _0290_
*293 _0291_
*294 _0292_
*295 _0293_
*296 _0294_
*297 _0295_
*298 _0296_
*299 _0297_
*300 _0298_
*301 _0299_
*302 _0300_
*303 _0301_
*304 _0302_
*305 _0303_
*306 _0304_
*307 _0305_
*308 _0306_
*309 _0307_
*310 _0308_
*311 _0309_
*312 _0310_
*313 _0311_
*314 _0312_
*315 _0313_
*316 _0314_
*317 _0315_
*318 _0316_
*319 _0317_
*320 _0318_
*321 _0319_
*322 _0320_
*323 _0321_
*324 _0322_
*325 _0323_
*326 _0324_
*327 _0325_
*328 _0326_
*329 _0327_
*330 _0328_
*331 _0329_
*332 _0330_
*333 _0331_
*334 _0332_
*335 _0333_
*336 _0334_
*337 _0335_
*338 _0336_
*339 _0337_
*340 _0338_
*341 _0339_
*342 _0340_
*343 _0341_
*344 _0342_
*345 _0343_
*346 _0344_
*347 _0345_
*348 _0346_
*349 _0347_
*350 _0348_
*351 _0349_
*352 _0350_
*353 _0351_
*354 _0352_
*355 _0353_
*356 _0354_
*357 _0355_
*358 _0356_
*359 _0357_
*360 _0358_
*361 _0359_
*362 _0360_
*363 _0361_
*364 _0362_
*365 _0363_
*366 _0364_
*367 _0365_
*368 _0366_
*369 _0367_
*370 _0368_
*371 _0369_
*372 _0370_
*373 _0371_
*374 _0372_
*375 _0373_
*376 _0374_
*377 _0375_
*378 _0376_
*379 _0377_
*380 _0378_
*381 _0379_
*382 _0380_
*383 _0381_
*384 _0382_
*385 _0383_
*386 _0384_
*387 _0385_
*388 _0386_
*389 _0387_
*390 _0388_
*391 _0389_
*392 _0390_
*393 _0391_
*394 _0392_
*395 _0393_
*396 _0394_
*397 _0395_
*398 _0396_
*399 _0397_
*400 _0398_
*401 _0399_
*402 _0400_
*403 _0401_
*404 _0402_
*405 _0403_
*406 _0404_
*407 _0405_
*408 _0406_
*409 _0407_
*410 _0408_
*411 _0409_
*412 _0410_
*413 _0411_
*414 _0412_
*415 _0413_
*416 _0414_
*417 _0415_
*418 _0416_
*419 _0417_
*420 _0418_
*421 _0419_
*422 _0420_
*423 _0421_
*424 _0422_
*425 _0423_
*426 _0424_
*427 _0425_
*428 _0426_
*429 _0427_
*430 _0428_
*431 _0429_
*432 _0430_
*433 _0431_
*434 _0432_
*435 _0433_
*436 _0434_
*437 _0435_
*438 _0436_
*439 _0437_
*440 _0438_
*441 _0439_
*442 _0440_
*443 _0441_
*444 _0442_
*445 _0443_
*446 _0444_
*447 _0445_
*448 _0446_
*449 _0447_
*450 _0448_
*451 _0449_
*452 _0450_
*453 _0451_
*454 _0452_
*455 _0453_
*456 _0454_
*457 _0455_
*458 _0456_
*459 _0457_
*460 _0458_
*461 _0459_
*462 _0460_
*463 _0461_
*464 _0462_
*465 _0463_
*466 _0464_
*467 _0465_
*468 _0466_
*469 _0467_
*470 _0468_
*471 _0469_
*472 _0470_
*473 _0471_
*474 _0472_
*475 _0473_
*476 _0474_
*477 _0475_
*478 _0476_
*479 _0477_
*480 _0478_
*481 _0479_
*482 _0480_
*483 _0481_
*484 _0482_
*485 _0483_
*486 _0484_
*487 _0485_
*488 _0486_
*489 _0487_
*490 _0488_
*491 _0489_
*492 _0490_
*493 _0491_
*494 _0492_
*495 _0493_
*496 _0494_
*497 _0495_
*498 _0496_
*499 _0497_
*500 _0498_
*501 _0499_
*502 _0500_
*503 _0501_
*504 _0502_
*505 _0503_
*506 _0504_
*507 _0505_
*508 _0506_
*509 _0507_
*510 _0508_
*511 _0509_
*512 _0510_
*513 _0511_
*514 _0512_
*515 _0513_
*516 _0514_
*517 _0515_
*518 _0516_
*519 _0517_
*520 _0518_
*521 _0519_
*522 _0520_
*523 _0521_
*524 _0522_
*525 _0523_
*526 _0524_
*527 _0525_
*528 _0526_
*529 _0527_
*530 _0528_
*531 _0529_
*532 _0530_
*533 _0531_
*534 _0532_
*535 _0533_
*536 _0534_
*537 _0535_
*538 _0536_
*539 _0537_
*540 _0538_
*541 _0539_
*542 _0540_
*543 _0541_
*544 _0542_
*545 _0543_
*546 _0544_
*547 _0545_
*548 _0546_
*549 _0547_
*550 _0548_
*551 _0549_
*552 _0550_
*553 _0551_
*554 _0552_
*555 _0553_
*556 _0554_
*557 _0555_
*558 _0556_
*559 _0557_
*560 _0558_
*561 _0559_
*562 _0560_
*563 _0561_
*564 _0562_
*565 _0563_
*566 _0564_
*567 _0565_
*568 _0566_
*569 _0567_
*570 _0568_
*571 _0569_
*572 _0570_
*573 _0571_
*574 _0572_
*575 _0573_
*576 _0574_
*577 _0575_
*578 _0576_
*579 _0577_
*580 _0578_
*581 _0579_
*582 _0580_
*583 _0581_
*584 _0582_
*585 _0583_
*586 _0584_
*587 _0585_
*588 _0586_
*589 _0587_
*590 _0588_
*591 _0589_
*592 _0590_
*593 _0591_
*594 _0592_
*595 _0593_
*596 _0594_
*597 _0595_
*598 _0596_
*599 _0597_
*600 _0598_
*601 _0599_
*602 _0600_
*603 _0601_
*604 _0602_
*605 _0603_
*606 _0604_
*607 _0605_
*608 _0606_
*609 _0607_
*610 _0608_
*611 _0609_
*612 _0610_
*613 _0611_
*614 _0612_
*615 _0613_
*616 _0614_
*617 _0615_
*618 _0616_
*619 _0617_
*620 _0618_
*621 _0619_
*622 _0620_
*623 _0621_
*624 _0622_
*625 _0623_
*626 _0624_
*627 _0625_
*628 _0626_
*629 _0627_
*630 _0628_
*631 _0629_
*632 _0630_
*633 _0631_
*634 _0632_
*635 _0633_
*636 _0634_
*637 _0635_
*638 _0636_
*639 _0637_
*640 _0638_
*641 _0639_
*642 _0640_
*643 _0641_
*644 _0642_
*645 _0643_
*646 _0644_
*647 _0645_
*648 _0646_
*649 _0647_
*650 _0648_
*651 _0649_
*652 _0650_
*653 _0651_
*654 _0652_
*655 _0653_
*656 _0654_
*657 _0655_
*658 _0656_
*659 _0657_
*660 _0658_
*661 _0659_
*662 _0660_
*663 _0661_
*664 _0662_
*665 _0663_
*666 _0664_
*667 _0665_
*668 _0666_
*669 _0667_
*670 _0668_
*671 _0669_
*672 _0670_
*673 _0671_
*674 _0672_
*675 _0673_
*676 _0674_
*677 _0675_
*678 _0676_
*679 _0677_
*680 _0678_
*681 _0679_
*682 _0680_
*683 _0681_
*684 _0682_
*685 _0683_
*686 _0684_
*687 _0685_
*688 _0686_
*689 _0687_
*690 _0688_
*691 _0689_
*692 _0690_
*693 _0691_
*694 _0692_
*695 _0693_
*696 _0694_
*697 _0695_
*698 _0696_
*699 _0697_
*700 _0698_
*701 _0699_
*702 _0700_
*703 _0701_
*704 _0702_
*705 _0703_
*706 _0704_
*707 _0705_
*708 _0706_
*709 _0707_
*710 _0708_
*711 _0709_
*712 _0710_
*713 _0711_
*714 _0712_
*715 _0713_
*716 _0714_
*717 _0715_
*718 _0716_
*719 _0717_
*720 _0718_
*721 _0719_
*722 _0720_
*723 _0721_
*724 _0722_
*725 _0723_
*726 _0724_
*727 _0725_
*728 _0726_
*729 _0727_
*730 _0728_
*731 _0729_
*732 _0730_
*733 _0731_
*734 _0732_
*735 _0733_
*736 _0734_
*737 _0735_
*738 _0736_
*739 _0737_
*740 _0738_
*741 _0739_
*742 _0740_
*743 _0741_
*744 _0742_
*745 _0743_
*746 _0744_
*747 _0745_
*748 _0746_
*749 _0747_
*750 _0748_
*751 _0749_
*752 _0750_
*753 _0751_
*754 _0752_
*755 _0753_
*756 _0754_
*757 _0755_
*758 _0756_
*759 _0757_
*760 _0758_
*761 _0759_
*762 _0760_
*763 _0761_
*764 _0762_
*765 _0763_
*766 _0764_
*767 _0765_
*768 _0766_
*769 _0767_
*770 _0768_
*771 _0769_
*772 _0770_
*773 _0771_
*774 _0772_
*775 _0773_
*776 _0774_
*777 _0775_
*778 _0776_
*779 _0777_
*780 _0778_
*781 _0779_
*782 _0780_
*783 _0781_
*784 _0782_
*785 _0783_
*786 _0784_
*787 _0785_
*788 _0786_
*789 _0787_
*790 _0788_
*791 _0789_
*792 _0790_
*793 _0791_
*794 _0792_
*795 _0793_
*796 _0794_
*797 _0795_
*798 _0796_
*799 _0797_
*800 _0798_
*801 _0799_
*802 _0800_
*803 _0801_
*804 _0802_
*805 _0803_
*806 _0804_
*807 _0805_
*808 _0806_
*809 _0807_
*810 _0808_
*811 _0809_
*812 _0810_
*813 _0811_
*814 _0812_
*815 _0813_
*816 _0814_
*817 _0815_
*818 _0816_
*819 _0817_
*820 _0818_
*821 _0819_
*822 _0820_
*823 _0821_
*824 _0822_
*825 _0823_
*826 _0824_
*827 _0825_
*828 _0826_
*829 _0827_
*830 _0828_
*831 _0829_
*832 _0830_
*833 _0831_
*834 _0832_
*835 _0833_
*836 _0834_
*837 _0835_
*838 _0836_
*839 _0837_
*840 _0838_
*841 _0839_
*842 _0840_
*843 _0841_
*844 _0842_
*845 _0843_
*846 _0844_
*847 _0845_
*848 _0846_
*849 _0847_
*850 _0848_
*851 _0849_
*852 _0850_
*853 _0851_
*854 _0852_
*855 _0853_
*856 _0854_
*857 _0855_
*858 _0856_
*859 _0857_
*860 _0858_
*861 _0859_
*862 _0860_
*863 _0861_
*864 _0862_
*865 _0863_
*866 _0864_
*867 _0865_
*868 _0866_
*869 _0867_
*870 _0868_
*871 _0869_
*872 _0870_
*873 _0871_
*874 _0872_
*875 _0873_
*876 _0874_
*877 _0875_
*878 _0876_
*879 _0877_
*880 _0878_
*881 _0879_
*882 _0880_
*883 _0881_
*884 _0882_
*885 _0883_
*886 _0884_
*887 _0885_
*888 _0886_
*889 _0887_
*890 _0888_
*891 _0889_
*892 _0890_
*893 _0891_
*894 _0892_
*895 _0893_
*896 _0894_
*897 _0895_
*898 _0896_
*899 _0897_
*900 _0898_
*901 _0899_
*902 _0900_
*903 _0901_
*904 _0902_
*905 _0903_
*906 _0904_
*907 _0905_
*908 _0906_
*909 _0907_
*910 _0908_
*911 _0909_
*912 _0910_
*913 _0911_
*914 _0912_
*915 _0913_
*916 _0914_
*917 _0915_
*918 _0916_
*919 _0917_
*920 _0918_
*921 _0919_
*922 _0920_
*923 _0921_
*924 _0922_
*925 _0923_
*926 _0924_
*927 _0925_
*928 _0926_
*929 _0927_
*930 _0928_
*931 _0929_
*932 _0930_
*933 _0931_
*934 _0932_
*935 _0933_
*936 _0934_
*937 _0935_
*938 _0936_
*939 _0937_
*940 _0938_
*941 _0939_
*942 _0940_
*943 _0941_
*944 _0942_
*945 _0943_
*946 _0944_
*947 _0945_
*948 _0946_
*949 _0947_
*950 _0948_
*951 _0949_
*952 _0950_
*953 _0951_
*954 _0952_
*955 _0953_
*956 _0954_
*957 _0955_
*958 _0956_
*959 _0957_
*960 _0958_
*961 _0959_
*962 _0960_
*963 _0961_
*964 _0962_
*965 _0963_
*966 _0964_
*967 _0965_
*968 _0966_
*969 _0967_
*970 _0968_
*971 _0969_
*972 _0970_
*973 _0971_
*974 _0972_
*975 _0973_
*976 _0974_
*977 _0975_
*978 _0976_
*979 _0977_
*980 _0978_
*981 _0979_
*982 _0980_
*983 _0981_
*984 _0982_
*985 _0983_
*986 _0984_
*987 _0985_
*988 _0986_
*989 _0987_
*990 _0988_
*991 _0989_
*992 _0990_
*993 _0991_
*994 _0992_
*995 _0993_
*996 _0994_
*997 _0995_
*998 _0996_
*999 _0997_
*1000 _0998_
*1001 _0999_
*1002 _1000_
*1003 _1001_
*1004 _1002_
*1005 _1003_
*1006 _1004_
*1007 _1005_
*1008 _1006_
*1009 _1007_
*1010 _1008_
*1011 _1009_
*1012 _1010_
*1013 _1011_
*1014 _1012_
*1015 _1013_
*1016 _1014_
*1017 _1015_
*1018 _1016_
*1019 _1017_
*1020 _1018_
*1021 _1019_
*1022 _1020_
*1023 _1021_
*1024 _1022_
*1025 _1023_
*1026 _1024_
*1027 _1025_
*1028 _1026_
*1029 _1027_
*1030 _1028_
*1031 _1029_
*1032 _1030_
*1033 _1031_
*1034 _1032_
*1035 _1033_
*1036 _1034_
*1037 _1035_
*1038 _1036_
*1039 _1037_
*1040 _1038_
*1041 _1039_
*1042 _1040_
*1043 _1041_
*1044 _1042_
*1045 _1043_
*1046 _1044_
*1047 _1045_
*1048 _1046_
*1049 _1047_
*1050 _1048_
*1051 _1049_
*1052 _1050_
*1053 _1051_
*1054 _1052_
*1055 _1053_
*1056 _1054_
*1057 _1055_
*1058 _1056_
*1059 _1057_
*1060 _1058_
*1061 _1059_
*1062 _1060_
*1063 _1061_
*1064 _1062_
*1065 _1063_
*1066 _1064_
*1067 _1065_
*1068 _1066_
*1069 _1067_
*1070 _1068_
*1071 _1069_
*1072 _1070_
*1073 _1071_
*1074 _1072_
*1075 _1073_
*1076 _1074_
*1077 _1075_
*1078 _1076_
*1079 _1077_
*1080 _1078_
*1081 _1079_
*1082 _1080_
*1083 _1081_
*1084 _1082_
*1085 _1083_
*1086 _1084_
*1087 _1085_
*1088 _1086_
*1089 _1087_
*1090 _1088_
*1091 _1089_
*1092 _1090_
*1093 _1091_
*1094 _1092_
*1095 _1093_
*1096 _1094_
*1097 _1095_
*1098 _1096_
*1099 _1097_
*1100 _1098_
*1101 _1099_
*1102 _1100_
*1103 _1101_
*1104 _1102_
*1105 _1103_
*1106 _1104_
*1107 _1105_
*1108 _1106_
*1109 _1107_
*1110 _1108_
*1111 _1109_
*1112 _1110_
*1113 _1111_
*1114 _1112_
*1115 _1113_
*1116 _1114_
*1117 _1115_
*1118 _1116_
*1119 _1117_
*1120 _1118_
*1121 _1119_
*1122 _1120_
*1123 _1121_
*1124 _1122_
*1125 _1123_
*1126 _1124_
*1127 _1125_
*1128 _1126_
*1129 _1127_
*1130 _1128_
*1131 _1129_
*1132 _1130_
*1133 _1131_
*1134 _1132_
*1135 _1133_
*1136 _1134_
*1137 _1135_
*1138 _1136_
*1139 _1137_
*1140 _1138_
*1141 _1139_
*1142 _1140_
*1143 _1141_
*1144 _1142_
*1145 _1143_
*1146 _1144_
*1147 _1145_
*1148 _1146_
*1149 _1147_
*1150 _1148_
*1151 _1149_
*1152 _1150_
*1153 _1151_
*1154 _1152_
*1155 _1153_
*1156 _1154_
*1157 _1155_
*1158 _1156_
*1159 _1157_
*1160 _1158_
*1161 _1159_
*1162 _1160_
*1163 _1161_
*1164 _1162_
*1165 _1163_
*1166 _1164_
*1167 _1165_
*1168 _1166_
*1169 _1167_
*1170 _1168_
*1171 _1169_
*1172 _1170_
*1173 _1171_
*1174 _1172_
*1175 _1173_
*1176 _1174_
*1177 _1175_
*1178 _1176_
*1179 _1177_
*1180 _1178_
*1181 _1179_
*1182 _1180_
*1183 _1181_
*1184 _1182_
*1185 _1183_
*1186 _1184_
*1187 _1185_
*1188 _1186_
*1189 _1187_
*1190 _1188_
*1191 _1189_
*1192 _1190_
*1193 _1191_
*1194 _1192_
*1195 _1193_
*1196 _1194_
*1197 _1195_
*1198 _1196_
*1199 _1197_
*1200 _1198_
*1201 _1199_
*1202 _1200_
*1203 _1201_
*1204 _1202_
*1205 _1203_
*1206 _1204_
*1207 _1205_
*1208 _1206_
*1209 _1207_
*1210 _1208_
*1211 _1209_
*1212 _1210_
*1213 _1211_
*1214 _1212_
*1215 _1213_
*1216 _1214_
*1217 _1215_
*1218 _1216_
*1219 _1217_
*1220 _1218_
*1221 _1219_
*1222 _1220_
*1223 _1221_
*1224 _1222_
*1225 _1223_
*1226 _1224_
*1227 _1225_
*1228 _1226_
*1229 _1227_
*1230 _1228_
*1231 _1229_
*1232 _1230_
*1233 _1231_
*1234 _1232_
*1235 _1233_
*1236 _1234_
*1237 _1235_
*1238 _1236_
*1239 _1237_
*1240 _1238_
*1241 _1239_
*1242 _1240_
*1243 _1241_
*1244 _1242_
*1245 _1243_
*1246 _1244_
*1247 _1245_
*1248 _1246_
*1249 _1247_
*1250 _1248_
*1251 _1249_
*1252 _1250_
*1253 _1251_
*1254 _1252_
*1255 _1253_
*1256 _1254_
*1257 _1255_
*1258 _1256_
*1259 _1257_
*1260 _1258_
*1261 _1259_
*1262 _1260_
*1263 _1261_
*1264 _1262_
*1265 _1263_
*1266 _1264_
*1267 _1265_
*1268 _1266_
*1269 _1267_
*1270 _1268_
*1271 _1269_
*1272 _1270_
*1273 _1271_
*1274 _1272_
*1275 _1273_
*1276 _1274_
*1277 _1275_
*1278 _1276_
*1279 _1277_
*1280 _1278_
*1281 _1279_
*1282 _1280_
*1283 _1281_
*1284 _1282_
*1285 _1283_
*1286 _1284_
*1287 _1285_
*1288 _1286_
*1289 _1287_
*1290 _1288_
*1291 _1289_
*1292 _1290_
*1293 _1291_
*1294 _1292_
*1295 _1293_
*1296 _1294_
*1297 _1295_
*1298 _1296_
*1299 _1297_
*1300 _1298_
*1301 _1299_
*1302 _1300_
*1303 _1301_
*1304 _1302_
*1305 _1303_
*1306 _1304_
*1307 _1305_
*1308 _1306_
*1309 _1307_
*1310 _1308_
*1311 _1309_
*1312 _1310_
*1313 _1311_
*1314 _1312_
*1315 _1313_
*1316 _1314_
*1317 _1315_
*1318 _1316_
*1319 _1317_
*1320 _1318_
*1321 _1319_
*1322 _1320_
*1323 _1321_
*1324 _1322_
*1325 _1323_
*1326 _1324_
*1327 _1325_
*1328 _1326_
*1329 _1327_
*1330 _1328_
*1331 _1329_
*1332 _1330_
*1333 _1331_
*1334 _1332_
*1335 _1333_
*1336 _1334_
*1337 _1335_
*1338 _1336_
*1339 _1337_
*1340 _1338_
*1341 _1339_
*1342 _1340_
*1343 _1341_
*1344 _1342_
*1345 _1343_
*1346 _1344_
*1347 _1345_
*1348 _1346_
*1349 _1347_
*1350 _1348_
*1351 _1349_
*1352 _1350_
*1353 _1351_
*1354 _1352_
*1355 _1353_
*1356 _1354_
*1357 _1355_
*1358 _1356_
*1359 _1357_
*1360 _1358_
*1361 _1359_
*1362 _1360_
*1363 _1361_
*1364 _1362_
*1365 _1363_
*1366 _1364_
*1367 _1365_
*1368 _1366_
*1369 _1367_
*1370 _1368_
*1371 _1369_
*1372 _1370_
*1373 _1371_
*1374 _1372_
*1375 _1373_
*1376 _1374_
*1377 _1375_
*1378 _1376_
*1379 _1377_
*1380 _1378_
*1381 _1379_
*1382 _1380_
*1383 _1381_
*1384 _1382_
*1385 _1383_
*1386 _1384_
*1387 _1385_
*1388 _1386_
*1389 _1387_
*1390 _1388_
*1391 _1389_
*1392 _1390_
*1393 _1391_
*1394 _1392_
*1395 _1393_
*1396 _1394_
*1397 _1395_
*1398 _1396_
*1399 _1397_
*1400 _1398_
*1401 _1399_
*1402 _1400_
*1403 _1401_
*1404 _1402_
*1405 _1403_
*1406 _1404_
*1407 _1405_
*1408 _1406_
*1409 _1407_
*1410 _1408_
*1411 _1409_
*1412 _1410_
*1413 _1411_
*1414 _1412_
*1415 _1413_
*1416 _1414_
*1417 _1415_
*1418 _1416_
*1419 _1417_
*1420 _1418_
*1421 _1419_
*1422 _1420_
*1423 _1421_
*1424 _1422_
*1425 _1423_
*1426 _1424_
*1427 _1425_
*1428 _1426_
*1429 _1427_
*1430 _1428_
*1431 _1429_
*1432 _1430_
*1433 _1431_
*1434 _1432_
*1435 _1433_
*1436 _1434_
*1437 _1435_
*1438 _1436_
*1439 _1437_
*1440 _1438_
*1441 _1439_
*1442 _1440_
*1443 _1441_
*1444 _1442_
*1445 _1443_
*1446 _1444_
*1447 _1445_
*1448 _1446_
*1449 _1447_
*1450 _1448_
*1451 _1449_
*1452 _1450_
*1453 _1451_
*1454 _1452_
*1455 _1453_
*1456 _1454_
*1457 _1455_
*1458 _1456_
*1459 _1457_
*1460 _1458_
*1461 _1459_
*1462 _1460_
*1463 _1461_
*1464 _1462_
*1465 _1463_
*1466 _1464_
*1467 _1465_
*1468 _1466_
*1469 _1467_
*1470 _1468_
*1471 _1469_
*1472 _1470_
*1473 _1471_
*1474 _1472_
*1475 _1473_
*1476 _1474_
*1477 _1475_
*1478 _1476_
*1479 _1477_
*1480 _1478_
*1481 _1479_
*1482 _1480_
*1483 _1481_
*1484 _1482_
*1485 _1483_
*1486 _1484_
*1487 _1485_
*1488 _1486_
*1489 _1487_
*1490 _1488_
*1491 _1489_
*1492 _1490_
*1493 _1491_
*1494 _1492_
*1495 _1493_
*1496 _1494_
*1497 _1495_
*1498 _1496_
*1499 _1497_
*1500 _1498_
*1501 _1499_
*1502 _1500_
*1503 _1501_
*1504 _1502_
*1505 _1503_
*1506 _1504_
*1507 _1505_
*1508 _1506_
*1509 _1507_
*1510 _1508_
*1511 _1509_
*1512 _1510_
*1513 _1511_
*1514 _1512_
*1515 _1513_
*1516 _1514_
*1517 _1515_
*1518 _1516_
*1519 _1517_
*1520 _1518_
*1521 _1519_
*1522 _1520_
*1523 _1521_
*1524 _1522_
*1525 _1523_
*1526 _1524_
*1527 _1525_
*1528 _1526_
*1529 _1527_
*1530 _1528_
*1531 _1529_
*1532 _1530_
*1533 _1531_
*1534 _1532_
*1535 _1533_
*1536 _1534_
*1537 _1535_
*1538 _1536_
*1539 _1537_
*1540 _1538_
*1541 _1539_
*1542 _1540_
*1543 _1541_
*1544 _1542_
*1545 _1543_
*1546 _1544_
*1547 _1545_
*1548 _1546_
*1549 _1547_
*1550 _1548_
*1551 _1549_
*1552 _1550_
*1553 _1551_
*1554 _1552_
*1555 _1553_
*1556 _1554_
*1557 _1555_
*1558 _1556_
*1559 _1557_
*1560 _1558_
*1561 _1559_
*1562 _1560_
*1563 _1561_
*1564 _1562_
*1565 _1563_
*1566 _1564_
*1567 _1565_
*1568 _1566_
*1569 _1567_
*1570 _1568_
*1571 _1569_
*1572 _1570_
*1573 _1571_
*1574 _1572_
*1575 _1573_
*1576 _1574_
*1577 _1575_
*1578 _1576_
*1579 _1577_
*1580 _1578_
*1581 _1579_
*1582 _1580_
*1583 _1581_
*1584 _1582_
*1585 _1583_
*1586 _1584_
*1587 _1585_
*1588 _1586_
*1589 _1587_
*1590 _1588_
*1591 _1589_
*1592 _1590_
*1593 _1591_
*1594 _1592_
*1595 _1593_
*1596 _1594_
*1597 _1595_
*1598 _1596_
*1599 _1597_
*1600 _1598_
*1601 _1599_
*1602 _1600_
*1603 _1601_
*1604 _1602_
*1605 _1603_
*1606 _1604_
*1607 _1605_
*1608 _1606_
*1609 _1607_
*1610 _1608_
*1611 _1609_
*1612 _1610_
*1613 _1611_
*1614 _1612_
*1615 _1613_
*1616 _1614_
*1617 _1615_
*1618 _1616_
*1619 _1617_
*1620 _1618_
*1621 _1619_
*1622 _1620_
*1623 _1621_
*1624 _1622_
*1625 _1623_
*1626 _1624_
*1627 _1625_
*1628 _1626_
*1629 _1627_
*1630 _1628_
*1631 _1629_
*1632 _1630_
*1633 _1631_
*1634 _1632_
*1635 _1633_
*1636 _1634_
*1637 _1635_
*1638 _1636_
*1639 _1637_
*1640 _1638_
*1641 _1639_
*1642 _1640_
*1643 _1641_
*1644 _1642_
*1645 _1643_
*1646 _1644_
*1647 _1645_
*1648 _1646_
*1649 _1647_
*1650 _1648_
*1651 _1649_
*1652 _1650_
*1653 _1651_
*1654 _1652_
*1655 _1653_
*1656 _1654_
*1657 _1655_
*1658 _1656_
*1659 _1657_
*1660 _1658_
*1661 _1659_
*1662 _1660_
*1663 _1661_
*1664 _1662_
*1665 _1663_
*1666 _1664_
*1667 _1665_
*1668 _1666_
*1669 _1667_
*1670 _1668_
*1671 _1669_
*1672 _1670_
*1673 _1671_
*1674 _1672_
*1675 _1673_
*1676 _1674_
*1677 _1675_
*1678 _1676_
*1679 _1677_
*1680 _1678_
*1681 _1679_
*1682 _1680_
*1683 _1681_
*1684 _1682_
*1685 _1683_
*1686 _1684_
*1687 _1685_
*1688 _1686_
*1689 _1687_
*1690 _1688_
*1691 _1689_
*1692 _1690_
*1693 _1691_
*1694 _1692_
*1695 _1693_
*1696 _1694_
*1697 _1695_
*1698 _1696_
*1699 _1697_
*1700 _1698_
*1701 _1699_
*1702 _1700_
*1703 _1701_
*1704 _1702_
*1705 _1703_
*1706 _1704_
*1707 _1705_
*1708 _1706_
*1709 _1707_
*1710 _1708_
*1711 _1709_
*1712 _1710_
*1713 _1711_
*1714 _1712_
*1715 _1713_
*1716 _1714_
*1717 _1715_
*1718 _1716_
*1719 _1717_
*1720 _1718_
*1721 _1719_
*1722 _1720_
*1723 _1721_
*1724 _1722_
*1725 _1723_
*1726 _1724_
*1727 _1725_
*1728 _1726_
*1729 _1727_
*1730 _1728_
*1731 _1729_
*1732 _1730_
*1733 _1731_
*1734 _1732_
*1735 _1733_
*1736 _1734_
*1737 _1735_
*1738 _1736_
*1739 _1737_
*1740 _1738_
*1741 _1739_
*1742 _1740_
*1743 _1741_
*1744 _1742_
*1745 _1743_
*1746 _1744_
*1747 _1745_
*1748 _1746_
*1749 _1747_
*1750 _1748_
*1751 _1749_
*1752 _1750_
*1753 _1751_
*1754 _1752_
*1755 _1753_
*1756 _1754_
*1757 _1755_
*1758 _1756_
*1759 _1757_
*1760 _1758_
*1761 _1759_
*1762 _1760_
*1763 _1761_
*1764 _1762_
*1765 _1763_
*1766 _1764_
*1767 _1765_
*1768 _1766_
*1769 _1767_
*1770 _1768_
*1771 _1769_
*1772 _1770_
*1773 _1771_
*1774 _1772_
*1775 _1773_
*1776 _1774_
*1777 _1775_
*1778 _1776_
*1779 _1777_
*1780 _1778_
*1781 _1779_
*1782 _1780_
*1783 _1781_
*1784 _1782_
*1785 _1783_
*1786 _1784_
*1787 _1785_
*1788 _1786_
*1789 _1787_
*1790 _1788_
*1791 _1789_
*1792 _1790_
*1793 _1791_
*1794 _1792_
*1795 _1793_
*1796 _1794_
*1797 _1795_
*1798 _1796_
*1799 _1797_
*1800 _1798_
*1801 _1799_
*1802 _1800_
*1803 _1801_
*1804 _1802_
*1805 _1803_
*1806 _1804_
*1807 _1805_
*1808 _1806_
*1809 _1807_
*1810 _1808_
*1811 _1809_
*1812 _1810_
*1813 _1811_
*1814 _1812_
*1815 _1813_
*1816 _1814_
*1817 _1815_
*1818 _1816_
*1819 _1817_
*1820 _1818_
*1821 _1819_
*1822 _1820_
*1823 _1821_
*1824 _1822_
*1825 _1823_
*1826 _1824_
*1827 _1825_
*1828 _1826_
*1829 _1827_
*1830 _1828_
*1831 _1829_
*1832 _1830_
*1833 _1831_
*1834 _1832_
*1835 _1833_
*1836 _1834_
*1837 _1835_
*1838 _1836_
*1839 _1837_
*1840 _1838_
*1841 _1839_
*1842 _1840_
*1843 _1841_
*1844 _1842_
*1845 _1843_
*1846 _1844_
*1847 _1845_
*1848 _1846_
*1849 _1847_
*1850 _1848_
*1851 _1849_
*1852 _1850_
*1853 _1851_
*1854 _1852_
*1855 _1853_
*1856 _1854_
*1857 _1855_
*1858 _1856_
*1859 _1857_
*1860 _1858_
*1861 _1859_
*1862 _1860_
*1863 _1861_
*1864 _1862_
*1865 _1863_
*1866 _1864_
*1867 _1865_
*1868 _1866_
*1869 _1867_
*1870 _1868_
*1871 _1869_
*1872 _1870_
*1873 _1871_
*1874 _1872_
*1875 _1873_
*1876 _1874_
*1877 _1875_
*1878 _1876_
*1879 _1877_
*1880 _1878_
*1881 _1879_
*1882 _1880_
*1883 _1881_
*1884 _1882_
*1885 _1883_
*1886 _1884_
*1887 _1885_
*1888 _1886_
*1889 _1887_
*1890 _1888_
*1891 _1889_
*1892 _1890_
*1893 _1891_
*1894 _1892_
*1895 _1893_
*1896 _1894_
*1897 _1895_
*1898 _1896_
*1899 _1897_
*1900 _1898_
*1901 _1899_
*1902 _1900_
*1903 _1901_
*1904 _1902_
*1905 _1903_
*1906 _1904_
*1907 _1905_
*1908 _1906_
*1909 _1907_
*1910 _1908_
*1911 _1909_
*1912 _1910_
*1913 _1911_
*1914 _1912_
*1915 _1913_
*1916 _1914_
*1917 _1915_
*1918 _1916_
*1919 _1917_
*1920 _1918_
*1921 _1919_
*1922 _1920_
*1923 _1921_
*1924 _1922_
*1925 _1923_
*1926 _1924_
*1927 _1925_
*1928 _1926_
*1929 _1927_
*1930 _1928_
*1931 _1929_
*1932 _1930_
*1933 _1931_
*1934 _1932_
*1935 _1933_
*1936 _1934_
*1937 _1935_
*1938 _1936_
*1939 _1937_
*1940 _1938_
*1941 _1939_
*1942 _1940_
*1943 _1941_
*1944 _1942_
*1945 _1943_
*1946 _1944_
*1947 _1945_
*1948 _1946_
*1949 _1947_
*1950 _1948_
*1951 _1949_
*1952 _1950_
*1953 _1951_
*1954 _1952_
*1955 _1953_
*1956 _1954_
*1957 _1955_
*1958 _1956_
*1959 _1957_
*1960 _1958_
*1961 _1959_
*1962 _1960_
*1963 _1961_
*1964 _1962_
*1965 _1963_
*1966 _1964_
*1967 _1965_
*1968 _1966_
*1969 _1967_
*1970 _1968_
*1971 _1969_
*1972 _1970_
*1973 _1971_
*1974 _1972_
*1975 _1973_
*1976 _1974_
*1977 _1975_
*1978 _1976_
*1979 _1977_
*1980 _1978_
*1981 _1979_
*1982 _1980_
*1983 _1981_
*1984 _1982_
*1985 _1983_
*1986 _1984_
*1987 _1985_
*1988 _1986_
*1989 _1987_
*1990 _1988_
*1991 _1989_
*1992 _1990_
*1993 _1991_
*1994 _1992_
*1995 _1993_
*1996 _1994_
*1997 _1995_
*1998 _1996_
*1999 _1997_
*2000 _1998_
*2001 _1999_
*2002 _2000_
*2003 _2001_
*2004 _2002_
*2005 _2003_
*2006 _2004_
*2007 _2005_
*2008 _2006_
*2009 _2007_
*2010 _2008_
*2011 _2009_
*2012 _2010_
*2013 _2011_
*2014 _2012_
*2015 _2013_
*2016 _2014_
*2017 _2015_
*2018 _2016_
*2019 _2017_
*2020 _2018_
*2021 _2019_
*2022 _2020_
*2023 _2021_
*2024 _2022_
*2025 _2023_
*2026 _2024_
*2027 _2025_
*2028 _2026_
*2029 _2027_
*2030 _2028_
*2031 _2029_
*2032 _2030_
*2033 _2031_
*2034 _2032_
*2035 _2033_
*2036 _2034_
*2037 _2035_
*2038 _2036_
*2039 _2037_
*2040 _2038_
*2041 _2039_
*2042 _2040_
*2043 _2041_
*2044 _2042_
*2045 _2043_
*2046 _2044_
*2047 _2045_
*2048 _2046_
*2049 _2047_
*2050 _2048_
*2051 _2049_
*2052 _2050_
*2053 _2051_
*2054 _2052_
*2055 _2053_
*2056 _2054_
*2057 _2055_
*2058 _2056_
*2059 _2057_
*2060 _2058_
*2061 _2059_
*2062 _2060_
*2063 _2061_
*2064 _2062_
*2065 _2063_
*2066 _2064_
*2067 _2065_
*2068 _2066_
*2069 _2067_
*2070 _2068_
*2071 _2069_
*2072 _2070_
*2073 _2071_
*2074 _2072_
*2075 _2073_
*2076 _2074_
*2077 _2075_
*2078 _2076_
*2079 _2077_
*2080 _2078_
*2081 _2079_
*2082 _2080_
*2083 _2081_
*2084 _2082_
*2085 _2083_
*2086 _2084_
*2087 _2085_
*2088 _2086_
*2089 _2087_
*2090 _2088_
*2091 _2089_
*2092 _2090_
*2093 _2091_
*2094 _2092_
*2095 _2093_
*2096 _2094_
*2097 _2095_
*2098 _2096_
*2099 _2097_
*2100 _2098_
*2101 _2099_
*2102 _2100_
*2103 _2101_
*2104 _2102_
*2105 _2103_
*2106 _2104_
*2107 _2105_
*2108 _2106_
*2109 _2107_
*2110 _2108_
*2111 _2109_
*2112 _2110_
*2113 _2111_
*2114 _2112_
*2115 _2113_
*2116 _2114_
*2117 _2115_
*2118 _2116_
*2119 _2117_
*2120 _2118_
*2121 _2119_
*2122 _2120_
*2123 _2121_
*2124 _2122_
*2125 _2123_
*2126 _2124_
*2127 _2125_
*2128 _2126_
*2129 _2127_
*2130 _2128_
*2131 _2129_
*2132 _2130_
*2133 _2131_
*2134 _2132_
*2135 _2133_
*2136 _2134_
*2137 _2135_
*2138 _2136_
*2139 _2137_
*2140 _2138_
*2141 _2139_
*2142 _2140_
*2143 _2141_
*2144 _2142_
*2145 _2143_
*2146 _2144_
*2147 _2145_
*2148 _2146_
*2149 _2147_
*2150 _2148_
*2151 _2149_
*2152 _2150_
*2153 _2151_
*2154 _2152_
*2155 _2153_
*2156 _2154_
*2157 _2155_
*2158 _2156_
*2159 _2157_
*2160 _2158_
*2161 _2159_
*2162 _2160_
*2163 _2161_
*2164 _2162_
*2165 _2163_
*2166 _2164_
*2167 _2165_
*2168 _2166_
*2169 _2167_
*2170 _2168_
*2171 _2169_
*2172 _2170_
*2173 _2171_
*2174 _2172_
*2175 _2173_
*2176 _2174_
*2177 _2175_
*2178 _2176_
*2179 _2177_
*2180 _2178_
*2181 _2179_
*2182 _2180_
*2183 _2181_
*2184 _2182_
*2185 _2183_
*2186 _2184_
*2187 _2185_
*2188 _2186_
*2189 _2187_
*2190 _2188_
*2191 _2189_
*2192 _2190_
*2193 _2191_
*2194 _2192_
*2195 _2193_
*2196 _2194_
*2197 _2195_
*2198 _2196_
*2199 _2197_
*2200 _2198_
*2201 _2199_
*2202 _2200_
*2203 _2201_
*2204 _2202_
*2205 _2203_
*2206 _2204_
*2207 _2205_
*2208 _2206_
*2209 _2207_
*2210 _2208_
*2211 _2209_
*2212 _2210_
*2213 _2211_
*2214 _2212_
*2215 _2213_
*2216 _2214_
*2217 _2215_
*2218 _2216_
*2219 _2217_
*2220 _2218_
*2221 _2219_
*2222 _2220_
*2223 _2221_
*2224 _2222_
*2225 _2223_
*2226 _2224_
*2227 _2225_
*2228 _2226_
*2229 _2227_
*2230 _2228_
*2231 _2229_
*2232 _2230_
*2233 _2231_
*2234 _2232_
*2235 _2233_
*2236 _2234_
*2237 _2235_
*2238 _2236_
*2239 _2237_
*2240 _2238_
*2241 _2239_
*2242 _2240_
*2243 _2241_
*2244 _2242_
*2245 _2243_
*2246 _2244_
*2247 _2245_
*2248 _2246_
*2249 _2247_
*2250 _2248_
*2251 _2249_
*2252 _2250_
*2253 _2251_
*2254 _2252_
*2255 _2253_
*2256 _2254_
*2257 _2255_
*2258 _2256_
*2259 _2257_
*2260 _2258_
*2261 _2259_
*2262 _2260_
*2263 _2261_
*2264 _2262_
*2265 _2263_
*2266 _2264_
*2267 _2265_
*2268 _2266_
*2269 _2267_
*2270 _2268_
*2271 _2269_
*2272 _2270_
*2273 _2271_
*2274 _2272_
*2275 _2273_
*2276 _2274_
*2277 _2275_
*2278 _2276_
*2279 _2277_
*2280 _2278_
*2281 _2279_
*2282 _2280_
*2283 _2281_
*2284 _2282_
*2285 _2283_
*2286 _2284_
*2287 _2285_
*2288 _2286_
*2289 _2287_
*2290 _2288_
*2291 _2289_
*2292 _2290_
*2293 _2291_
*2294 _2292_
*2295 _2293_
*2296 _2294_
*2297 _2295_
*2298 _2296_
*2299 _2297_
*2300 _2298_
*2301 _2299_
*2302 _2300_
*2303 _2301_
*2304 _2302_
*2305 _2303_
*2306 _2304_
*2307 _2305_
*2308 _2306_
*2309 _2307_
*2310 _2308_
*2311 _2309_
*2312 _2310_
*2313 _2311_
*2314 _2312_
*2315 _2313_
*2316 _2314_
*2317 _2315_
*2318 _2316_
*2319 _2317_
*2320 _2318_
*2321 _2319_
*2322 _2320_
*2323 _2321_
*2324 _2322_
*2325 _2323_
*2326 _2324_
*2327 _2325_
*2328 _2326_
*2329 _2327_
*2330 _2328_
*2331 _2329_
*2332 _2330_
*2333 _2331_
*2334 _2332_
*2335 _2333_
*2336 _2334_
*2337 _2335_
*2338 _2336_
*2339 _2337_
*2340 _2338_
*2341 _2339_
*2342 _2340_
*2343 _2341_
*2344 _2342_
*2345 _2343_
*2346 _2344_
*2347 _2345_
*2348 _2346_
*2349 _2347_
*2350 _2348_
*2351 _2349_
*2352 _2350_
*2353 _2351_
*2354 _2352_
*2355 _2353_
*2356 _2354_
*2357 _2355_
*2358 _2356_
*2359 _2357_
*2360 _2358_
*2361 _2359_
*2362 _2360_
*2363 _2361_
*2364 _2362_
*2365 _2363_
*2366 _2364_