*SPEF "ieee 1481-1999"
*DESIGN "tt_um_NicklausThompson_SkyKing"
*DATE "07:44:28 Monday November 04, 2024"
*VENDOR "The OpenROAD Project"
*PROGRAM "OpenROAD"
*VERSION "v2.0-16649-g40811f37f"
*DESIGN_FLOW "NAME_SCOPE LOCAL" "PIN_CAP NONE"
*DIVIDER /
*DELIMITER :
*BUS_DELIMITER []
*T_UNIT 1 NS
*C_UNIT 1 PF
*R_UNIT 1 OHM
*L_UNIT 1 HENRY

*NAME_MAP
*1 BNC_trig
*2 BNC_x\[0\]
*3 BNC_x\[1\]
*4 BNC_x\[2\]
*5 BNC_x\[3\]
*6 BNC_x\[4\]
*7 BNC_x\[5\]
*8 BNC_x\[6\]
*9 BNC_x\[7\]
*10 BNC_y\[0\]
*11 BNC_y\[1\]
*12 BNC_y\[2\]
*13 BNC_y\[3\]
*14 BNC_y\[4\]
*15 BNC_y\[5\]
*16 BNC_y\[6\]
*17 _0000_
*18 _0001_
*19 _0002_
*20 _0003_
*21 _0004_
*22 _0005_
*23 _0006_
*24 _0007_
*25 _0008_
*26 _0009_
*27 _0010_
*28 _0011_
*29 _0012_
*30 _0013_
*31 _0014_
*32 _0015_
*33 _0016_
*34 _0017_
*35 _0018_
*36 _0019_
*37 _0020_
*38 _0021_
*39 _0022_
*40 _0023_
*41 _0024_
*42 _0025_
*43 _0026_
*44 _0027_
*45 _0028_
*46 _0029_
*47 _0030_
*48 _0031_
*49 _0032_
*50 _0033_
*51 _0034_
*52 _0035_
*53 _0036_
*54 _0037_
*55 _0038_
*56 _0039_
*57 _0040_
*58 _0041_
*59 _0042_
*60 _0043_
*61 _0044_
*62 _0045_
*63 _0046_
*64 _0047_
*65 _0048_
*66 _0049_
*67 _0050_
*68 _0051_
*69 _0052_
*70 _0053_
*71 _0054_
*72 _0055_
*73 _0056_
*74 _0057_
*75 _0058_
*76 _0059_
*77 _0060_
*78 _0061_
*79 _0062_
*80 _0063_
*81 _0064_
*82 _0065_
*83 _0066_
*84 _0067_
*85 _0068_
*86 _0069_
*87 _0070_
*88 _0071_
*89 _0072_
*90 _0073_
*91 _0074_
*92 _0075_
*93 _0076_
*94 _0077_
*95 _0078_
*96 _0079_
*97 _0080_
*98 _0081_
*99 _0082_
*100 _0083_
*101 _0084_
*102 _0085_
*103 _0086_
*104 _0087_
*105 _0088_
*106 _0089_
*107 _0090_
*108 _0091_
*109 _0092_
*110 _0093_
*111 _0094_
*112 _0095_
*113 _0096_
*114 _0097_
*115 _0098_
*116 _0099_
*117 _0100_
*118 _0101_
*119 _0102_
*120 _0103_
*121 _0104_
*122 _0105_
*123 _0106_
*124 _0107_
*125 _0108_
*126 _0109_
*127 _0110_
*128 _0111_
*129 _0112_
*130 _0113_
*131 _0114_
*132 _0115_
*133 _0116_
*134 _0117_
*135 _0118_
*136 _0119_
*137 _0120_
*138 _0121_
*139 _0122_
*140 _0123_
*141 _0124_
*142 _0125_
*143 _0126_
*144 _0127_
*145 _0128_
*146 _0129_
*147 _0130_
*148 _0131_
*149 _0132_
*150 _0133_
*151 _0134_
*152 _0135_
*153 _0136_
*154 _0137_
*155 _0138_
*156 _0139_
*157 _0140_
*158 _0141_
*159 _0142_
*160 _0143_
*161 _0144_
*162 _0145_
*163 _0146_
*164 _0147_
*165 _0148_
*166 _0149_
*167 _0150_
*168 _0151_
*169 _0152_
*170 _0153_
*171 _0154_
*172 _0155_
*173 _0156_
*174 _0157_
*175 _0158_
*176 _0159_
*177 _0160_
*178 _0161_
*179 _0162_
*180 _0163_
*181 _0164_
*182 _0165_
*183 _0166_
*184 _0167_
*185 _0168_
*186 _0169_
*187 _0170_
*188 _0171_
*189 _0172_
*190 _0173_
*191 _0174_
*192 _0175_
*193 _0176_
*194 _0177_
*195 _0178_
*196 _0179_
*197 _0180_
*198 _0181_
*199 _0182_
*200 _0183_
*201 _0184_
*202 _0185_
*203 _0186_
*204 _0187_
*205 _0188_
*206 _0189_
*207 _0190_
*208 _0191_
*209 _0192_
*210 _0193_
*211 _0194_
*212 _0195_
*213 _0196_
*214 _0197_
*215 _0198_
*216 _0199_
*217 _0200_
*218 _0201_
*219 _0202_
*220 _0203_
*221 _0204_
*222 _0205_
*223 _0206_
*224 _0207_
*225 _0208_
*226 _0209_
*227 _0210_
*228 _0211_
*229 _0212_
*230 _0213_
*231 _0214_
*232 _0215_
*233 _0216_
*234 _0217_
*235 _0218_
*236 _0219_
*237 _0220_
*238 _0221_
*239 _0222_
*240 _0223_
*241 _0224_
*242 _0225_
*243 _0226_
*244 _0227_
*245 _0228_
*246 _0229_
*247 _0230_
*248 _0231_
*249 _0232_
*250 _0233_
*251 _0234_
*252 _0235_
*253 _0236_
*254 _0237_
*255 _0238_
*256 _0239_
*257 _0240_
*258 _0241_
*259 _0242_
*260 _0243_
*261 _0244_
*262 _0245_
*263 _0246_
*264 _0247_
*265 _0248_
*266 _0249_
*267 _0250_
*268 _0251_
*269 _0252_
*270 _0253_
*271 _0254_
*272 _0255_
*273 _0256_
*274 _0257_
*275 _0258_
*276 _0259_
*277 _0260_
*278 _0261_
*279 _0262_
*280 _0263_
*281 _0264_
*282 _0265_
*283 _0266_
*284 _0267_
*285 _0268_
*286 _0269_
*287 _0270_
*288 _0271_
*289 _0272_
*290 _0273_
*291 _0274_
*292 _0275_
*293 _0276_
*294 _0277_
*295 _0278_
*296 _0279_
*297 _0280_
*298 _0281_
*299 _0282_
*300 _0283_
*301 _0284_
*302 _0285_
*303 _0286_
*304 _0287_
*305 _0288_
*306 _0289_
*307 _0290_
*308 _0291_
*309 _0292_
*310 _0293_
*311 _0294_
*312 _0295_
*313 _0296_
*314 _0297_
*315 _0298_
*316 _0299_
*317 _0300_
*318 _0301_
*319 _0302_
*320 _0303_
*321 _0304_
*322 _0305_
*323 _0306_
*324 _0307_
*325 _0308_
*326 _0309_
*327 _0310_
*328 _0311_
*329 _0312_
*330 _0313_
*331 _0314_
*332 _0315_
*333 _0316_
*334 _0317_
*335 _0318_
*336 _0319_
*337 _0320_
*338 _0321_
*339 _0322_
*340 _0323_
*341 _0324_
*342 _0325_
*343 _0326_
*344 _0327_
*345 _0328_
*346 _0329_
*347 _0330_
*348 _0331_
*349 _0332_
*350 _0333_
*351 _0334_
*352 _0335_
*353 _0336_
*354 _0337_
*355 _0338_
*356 _0339_
*357 _0340_
*358 _0341_
*359 _0342_
*360 _0343_
*361 _0344_
*362 _0345_
*363 _0346_
*364 _0347_
*365 _0348_
*366 _0349_
*367 _0350_
*368 _0351_
*369 _0352_
*370 _0353_
*371 _0354_
*372 _0355_
*373 _0356_
*374 _0357_
*375 _0358_
*376 _0359_
*377 _0360_
*378 _0361_
*379 _0362_
*380 _0363_
*381 _0364_
*382 _0365_
*383 _0366_
*384 _0367_
*385 _0368_
*386 _0369_
*387 _0370_
*388 _0371_
*389 _0372_
*390 _0373_
*391 _0374_
*392 _0375_
*393 _0376_
*394 _0377_
*395 _0378_
*396 _0379_
*397 _0380_
*398 _0381_
*399 _0382_
*400 _0383_
*401 _0384_
*402 _0385_
*403 _0386_
*404 _0387_
*405 _0388_
*406 _0389_
*407 _0390_
*408 _0391_
*409 _0392_
*410 _0393_
*411 _0394_
*412 _0395_
*413 _0396_
*414 _0397_
*415 _0398_
*416 _0399_
*417 _0400_
*418 _0401_
*419 _0402_
*420 _0403_
*421 _0404_
*422 _0405_
*423 _0406_
*424 _0407_
*425 _0408_
*426 _0409_
*427 _0410_
*428 _0411_
*429 _0412_
*430 _0413_
*431 _0414_
*432 _0415_
*433 _0416_
*434 _0417_
*435 _0418_
*436 _0419_
*437 _0420_
*438 _0421_
*439 _0422_
*440 _0423_
*441 _0424_
*442 _0425_
*443 _0426_
*444 _0427_
*445 _0428_
*446 _0429_
*447 _0430_
*448 _0431_
*449 _0432_
*450 _0433_
*451 _0434_
*452 _0435_
*453 _0436_
*454 _0437_
*455 _0438_
*456 _0439_
*457 _0440_
*458 _0441_
*459 _0442_
*460 _0443_
*461 _0444_
*462 _0445_
*463 _0446_
*464 _0447_
*465 _0448_
*466 _0449_
*467 _0450_
*468 _0451_
*469 _0452_
*470 _0453_
*471 _0454_
*472 _0455_
*473 _0456_
*474 _0457_
*475 _0458_
*476 _0459_
*477 _0460_
*478 _0461_
*479 _0462_
*480 _0463_
*481 _0464_
*482 _0465_
*483 _0466_
*484 _0467_
*485 _0468_
*486 _0469_
*487 _0470_
*488 _0471_
*489 _0472_
*490 _0473_
*491 _0474_
*492 _0475_
*493 _0476_
*494 _0477_
*495 _0478_
*496 _0479_
*497 _0480_
*498 _0481_
*499 _0482_
*500 _0483_
*501 _0484_
*502 _0485_
*503 _0486_
*504 _0487_
*505 _0488_
*506 _0489_
*507 _0490_
*508 _0491_
*509 _0492_
*510 _0493_
*511 _0494_
*512 _0495_
*513 _0496_
*514 _0497_
*515 _0498_
*516 _0499_
*517 _0500_
*518 _0501_
*519 _0502_
*520 _0503_
*521 _0504_
*522 _0505_
*523 _0506_
*524 _0507_
*525 _0508_
*526 _0509_
*527 _0510_
*528 _0511_
*529 _0512_
*530 _0513_
*531 _0514_
*532 _0515_
*533 _0516_
*534 _0517_
*535 _0518_
*536 _0519_
*537 _0520_
*538 _0521_
*539 _0522_
*540 _0523_
*541 _0524_
*542 _0525_
*543 _0526_
*544 _0527_
*545 _0528_
*546 _0529_
*547 _0530_
*548 _0531_
*549 _0532_
*550 _0533_
*551 _0534_
*552 _0535_
*553 _0536_
*554 _0537_
*555 _0538_
*556 _0539_
*557 _0540_
*558 _0541_
*559 _0542_
*560 _0543_
*561 _0544_
*562 _0545_
*563 _0546_
*564 _0547_
*565 _0548_
*566 _0549_
*567 _0550_
*568 _0551_
*569 _0552_
*570 _0553_
*571 _0554_
*572 _0555_
*573 _0556_
*574 _0557_
*575 _0558_
*576 _0559_
*577 _0560_
*578 _0561_
*579 _0562_
*580 _0563_
*581 _0564_
*582 _0565_
*583 _0566_
*584 _0567_
*585 _0568_
*586 _0569_
*587 _0570_
*588 _0571_
*589 _0572_
*590 _0573_
*591 _0574_
*592 _0575_
*593 _0576_
*594 _0577_
*595 _0578_
*596 _0579_
*597 _0580_
*598 _0581_
*599 _0582_
*600 _0583_
*601 _0584_
*602 _0585_
*603 _0586_
*604 _0587_
*605 _0588_
*606 _0589_
*607 _0590_
*608 _0591_
*609 _0592_
*610 _0593_
*611 _0594_
*612 _0595_
*613 _0596_
*614 _0597_
*615 _0598_
*616 _0599_
*617 _0600_
*618 _0601_
*619 _0602_
*620 _0603_
*621 _0604_
*622 _0605_
*623 _0606_
*624 _0607_
*625 _0608_
*626 _0609_
*627 _0610_
*628 _0611_
*629 _0612_
*630 _0613_
*631 _0614_
*632 _0615_
*633 _0616_
*634 _0617_
*635 _0618_
*636 _0619_
*637 _0620_
*638 _0621_
*639 _0622_
*640 _0623_
*641 _0624_
*642 _0625_
*643 _0626_
*644 _0627_
*645 _0628_
*646 _0629_
*647 _0630_
*648 _0631_
*649 _0632_
*650 _0633_
*651 _0634_
*652 _0635_
*653 _0636_
*654 _0637_
*655 _0638_
*656 _0639_
*657 _0640_
*658 _0641_
*659 _0642_
*660 _0643_
*661 _0644_
*662 _0645_
*663 _0646_
*664 _0647_
*665 _0648_
*666 _0649_
*667 _0650_
*668 _0651_
*669 _0652_
*670 _0653_
*671 _0654_
*672 _0655_
*673 _0656_
*674 _0657_
*675 _0658_
*676 _0659_
*677 _0660_
*678 _0661_
*679 _0662_
*680 _0663_
*681 _0664_
*682 _0665_
*683 _0666_
*684 _0667_
*685 _0668_
*686 _0669_
*687 _0670_
*688 _0671_
*689 _0672_
*690 _0673_
*691 _0674_
*692 _0675_
*693 _0676_
*694 _0677_
*695 _0678_
*696 _0679_
*697 _0680_
*698 _0681_
*699 _0682_
*700 _0683_
*701 _0684_
*702 _0685_
*703 _0686_
*704 _0687_
*705 _0688_
*706 _0689_
*707 _0690_
*708 _0691_
*709 _0692_
*710 _0693_
*711 _0694_
*712 _0695_
*713 _0696_
*714 _0697_
*715 _0698_
*716 _0699_
*717 _0700_
*718 _0701_
*719 _0702_
*720 _0703_
*721 _0704_
*722 _0705_
*723 _0706_
*724 _0707_
*725 _0708_
*726 _0709_
*727 _0710_
*728 _0711_
*729 _0712_
*730 _0713_
*731 _0714_
*732 _0715_
*733 _0716_
*734 _0717_
*735 _0718_
*736 _0719_
*737 _0720_
*738 _0721_
*739 _0722_
*740 _0723_
*741 _0724_
*742 _0725_
*743 _0726_
*744 _0727_
*745 _0728_
*746 _0729_
*747 _0730_
*748 _0731_
*749 _0732_
*750 _0733_
*751 _0734_
*752 _0735_
*753 _0736_
*754 _0737_
*755 _0738_
*756 _0739_
*757 _0740_
*758 _0741_
*759 _0742_
*760 _0743_
*761 _0744_
*762 _0745_
*763 _0746_
*764 _0747_
*765 _0748_
*766 _0749_
*767 _0750_
*768 _0751_
*769 _0752_
*770 _0753_
*771 _0754_
*772 _0755_
*773 _0756_
*774 _0757_
*775 _0758_
*776 _0759_
*777 _0760_
*778 _0761_
*779 _0762_
*780 _0763_
*781 _0764_
*782 _0765_
*783 _0766_
*784 _0767_
*785 _0768_
*786 _0769_
*787 _0770_
*788 _0771_
*789 _0772_
*790 _0773_
*791 _0774_
*792 _0775_
*793 _0776_
*794 _0777_
*795 _0778_
*796 _0779_
*797 _0780_
*798 _0781_
*799 _0782_
*800 _0783_
*801 _0784_
*802 _0785_
*803 _0786_
*804 _0787_
*805 _0788_
*806 _0789_
*807 _0790_
*808 _0791_
*809 _0792_
*810 _0793_
*811 _0794_
*812 _0795_
*813 _0796_
*814 _0797_
*815 _0798_
*816 _0799_
*817 _0800_
*818 _0801_
*819 _0802_
*820 _0803_
*821 _0804_
*822 _0805_
*823 _0806_
*824 _0807_
*825 _0808_
*826 _0809_
*827 _0810_
*828 _0811_
*829 _0812_
*830 _0813_
*831 _0814_
*832 _0815_
*833 _0816_
*834 _0817_
*835 _0818_
*836 _0819_
*837 _0820_
*838 _0821_
*839 _0822_
*840 _0823_
*841 _0824_
*842 _0825_
*843 _0826_
*844 _0827_
*845 _0828_
*846 _0829_
*847 _0830_
*848 _0831_
*849 _0832_
*850 _0833_
*851 _0834_
*852 _0835_
*853 _0836_
*854 _0837_
*855 _0838_
*856 _0839_
*857 _0840_
*858 _0841_
*859 _0842_
*860 _0843_
*861 _0844_
*862 _0845_
*863 _0846_
*864 _0847_
*865 _0848_
*866 _0849_
*867 _0850_
*868 _0851_
*869 _0852_
*870 _0853_
*871 _0854_
*872 _0855_
*873 _0856_
*874 _0857_
*875 _0858_
*876 _0859_
*877 _0860_
*878 _0861_
*879 _0862_
*880 _0863_
*881 _0864_
*882 _0865_
*883 _0866_
*884 _0867_
*885 _0868_
*886 _0869_
*887 _0870_
*888 _0871_
*889 _0872_
*890 _0873_
*891 _0874_
*892 _0875_
*893 _0876_
*894 _0877_
*895 _0878_
*896 _0879_
*897 _0880_
*898 _0881_
*899 _0882_
*900 _0883_
*901 _0884_
*902 _0885_
*903 _0886_
*904 _0887_
*905 _0888_
*906 _0889_
*907 _0890_
*908 _0891_
*909 _0892_
*910 _0893_
*911 _0894_
*912 _0895_
*913 _0896_
*914 _0897_
*915 _0898_
*916 _0899_
*917 _0900_
*918 _0901_
*919 _0902_
*920 _0903_
*921 _0904_
*922 _0905_
*923 _0906_
*924 _0907_
*925 _0908_
*926 _0909_
*927 _0910_
*928 _0911_
*929 _0912_
*930 _0913_
*931 _0914_
*932 _0915_
*933 _0916_
*934 _0917_
*935 clknet_0_clk
*936 bnc_image_generator\.counter\[0\]
*937 bnc_image_generator\.counter\[1\]
*938 bnc_image_generator\.counter\[2\]
*939 bnc_image_generator\.counter\[4\]
*940 clk
*941 ena
*942 hsync
*943 hvsync_gen\.hpos\[0\]
*944 hvsync_gen\.hpos\[1\]
*945 hvsync_gen\.hpos\[2\]
*946 hvsync_gen\.hpos\[3\]
*947 hvsync_gen\.hpos\[4\]
*948 hvsync_gen\.hpos\[5\]
*949 hvsync_gen\.hpos\[6\]
*950 hvsync_gen\.hpos\[7\]
*951 hvsync_gen\.hpos\[8\]
*952 hvsync_gen\.hpos\[9\]
*953 hvsync_gen\.vpos\[0\]
*954 hvsync_gen\.vpos\[1\]
*955 hvsync_gen\.vpos\[2\]
*956 hvsync_gen\.vpos\[3\]
*957 hvsync_gen\.vpos\[4\]
*958 hvsync_gen\.vpos\[5\]
*959 hvsync_gen\.vpos\[6\]
*960 hvsync_gen\.vpos\[7\]
*961 hvsync_gen\.vpos\[8\]
*962 hvsync_gen\.vpos\[9\]
*963 hvsync_gen\.vsync
*964 rst_n
*965 ui_in[0]
*966 ui_in[1]
*967 ui_in[2]
*968 ui_in[3]
*969 ui_in[4]
*970 ui_in[5]
*971 ui_in[6]
*972 ui_in[7]
*973 uio_in[0]
*974 uio_in[1]
*975 uio_in[2]
*976 uio_in[3]
*977 uio_in[4]
*978 uio_in[5]
*979 uio_in[6]
*980 uio_in[7]
*981 uio_oe[0]
*982 uio_oe[1]
*983 uio_oe[2]
*984 uio_oe[3]
*985 uio_oe[4]
*986 uio_oe[5]
*987 uio_oe[6]
*988 uio_oe[7]
*989 uio_out[0]
*990 uio_out[1]
*991 uio_out[2]
*992 uio_out[3]
*993 uio_out[4]
*994 uio_out[5]
*995 uio_out[6]
*996 uio_out[7]
*997 uo_out[0]
*998 uo_out[1]
*999 uo_out[2]
*1000 uo_out[3]
*1001 uo_out[4]
*1002 uo_out[5]
*1003 uo_out[6]
*1004 uo_out[7]
*1005 vga_image_generator\.character_hold\[0\]
*1006 vga_image_generator\.character_hold\[10\]
*1007 vga_image_generator\.character_hold\[11\]
*1008 vga_image_generator\.character_hold\[12\]
*1009 vga_image_generator\.character_hold\[13\]
*1010 vga_image_generator\.character_hold\[14\]
*1011 vga_image_generator\.character_hold\[15\]
*1012 vga_image_generator\.character_hold\[16\]
*1013 vga_image_generator\.character_hold\[17\]
*1014 vga_image_generator\.character_hold\[1\]
*1015 vga_image_generator\.character_hold\[2\]
*1016 vga_image_generator\.character_hold\[3\]
*1017 vga_image_generator\.character_hold\[4\]
*1018 vga_image_generator\.character_hold\[5\]
*1019 vga_image_generator\.character_hold\[6\]
*1020 vga_image_generator\.character_hold\[7\]
*1021 vga_image_generator\.character_hold\[8\]
*1022 vga_image_generator\.character_hold\[9\]
*1023 vga_image_generator\.counter\[0\]
*1024 vga_image_generator\.counter\[10\]
*1025 vga_image_generator\.counter\[11\]
*1026 vga_image_generator\.counter\[12\]
*1027 vga_image_generator\.counter\[13\]
*1028 vga_image_generator\.counter\[14\]
*1029 vga_image_generator\.counter\[15\]
*1030 vga_image_generator\.counter\[16\]
*1031 vga_image_generator\.counter\[17\]
*1032 vga_image_generator\.counter\[18\]
*1033 vga_image_generator\.counter\[19\]
*1034 vga_image_generator\.counter\[1\]
*1035 vga_image_generator\.counter\[20\]
*1036 vga_image_generator\.counter\[21\]
*1037 vga_image_generator\.counter\[22\]
*1038 vga_image_generator\.counter\[23\]
*1039 vga_image_generator\.counter\[24\]
*1040 vga_image_generator\.counter\[25\]
*1041 vga_image_generator\.counter\[26\]
*1042 vga_image_generator\.counter\[27\]
*1043 vga_image_generator\.counter\[2\]
*1044 vga_image_generator\.counter\[3\]
*1045 vga_image_generator\.counter\[4\]
*1046 vga_image_generator\.counter\[5\]
*1047 vga_image_generator\.counter\[6\]
*1048 vga_image_generator\.counter\[7\]
*1049 vga_image_generator\.counter\[8\]
*1050 vga_image_generator\.counter\[9\]
*1053 net1
*1054 net2
*1055 net3
*1056 net4
*1057 net5
*1058 net6
*1059 net7
*1060 net8
*1061 net9
*1062 net10
*1063 net11
*1064 net12
*1065 net13
*1066 net14
*1067 net15
*1068 net16
*1069 net17
*1070 net18
*1071 net19
*1072 net20
*1073 net21
*1074 net22
*1075 net23
*1076 net24
*1077 net25
*1078 net26
*1079 net27
*1080 net28
*1081 net29
*1082 net30
*1083 net31
*1084 net32
*1085 net33
*1086 net34
*1087 net35
*1088 net36
*1089 net37
*1090 net38
*1091 net39
*1092 net40
*1093 net41
*1094 net42
*1095 net43
*1096 net44
*1097 net45
*1098 net46
*1099 net47
*1100 net48
*1101 net49
*1102 net50
*1103 net51
*1104 net52
*1105 net53
*1106 net54
*1107 net55
*1108 net56
*1109 net57
*1110 net58
*1111 net59
*1112 net60
*1113 net61
*1114 net62
*1115 net63
*1116 net64
*1117 net65
*1118 net66
*1119 net67
*1120 net68
*1121 net69
*1122 net70
*1123 net71
*1124 net72
*1125 net73
*1126 net74
*1127 net75
*1128 net76
*1129 net77
*1130 net78
*1131 net79
*1132 net80
*1133 net81
*1134 net82
*1135 net83
*1136 net84
*1137 net85
*1138 net86
*1139 net87
*1140 net88
*1141 net89
*1142 net90
*1143 net91
*1144 net92
*1145 net93
*1146 net94
*1147 net95
*1148 net96
*1149 net97
*1150 net98
*1151 net99
*1152 net100
*1153 net101
*1154 net102
*1155 net103
*1156 net104
*1157 net105
*1158 net106
*1159 net107
*1160 net108
*1161 net109
*1162 net110
*1163 net111
*1164 net112
*1165 net113
*1166 net114
*1167 net115
*1168 net116
*1169 net117
*1170 net118
*1171 net119
*1172 net120
*1173 net121
*1174 net122
*1175 net123
*1176 net124
*1177 net125
*1178 net126
*1179 net127
*1180 net128
*1181 net129
*1182 net130
*1183 net131
*1184 net132
*1185 net133
*1186 net134
*1187 net135
*1188 net136
*1189 net137
*1190 net138
*1191 net139
*1192 net140
*1193 net141
*1194 net142
*1195 net143
*1196 net144
*1197 net145
*1198 net146
*1199 net147
*1200 net148
*1201 net149
*1202 net150
*1203 net151
*1204 net152
*1205 net153
*1206 net154
*1207 net155
*1208 net156
*1209 net157
*1210 net158
*1211 net159
*1212 net160
*1213 net161
*1214 net162
*1215 clknet_4_0_0_clk
*1216 clknet_4_1_0_clk
*1217 clknet_4_2_0_clk
*1218 clknet_4_3_0_clk
*1219 clknet_4_4_0_clk
*1220 clknet_4_5_0_clk
*1221 clknet_4_6_0_clk
*1222 clknet_4_7_0_clk
*1223 clknet_4_8_0_clk
*1224 clknet_4_9_0_clk
*1225 clknet_4_10_0_clk
*1226 clknet_4_11_0_clk
*1227 clknet_4_12_0_clk
*1228 clknet_4_13_0_clk
*1229 clknet_4_14_0_clk
*1230 clknet_4_15_0_clk
*1231 net163
*1232 _0919_
*1233 _0920_
*1234 _0921_
*1235 _0922_
*1236 _0923_
*1237 _0924_
*1238 _0925_
*1239 _0926_
*1240 _0927_
*1241 _0928_
*1242 _0929_
*1243 _0930_
*1244 _0931_
*1245 _0932_
*1246 _0933_
*1247 _0934_
*1248 _0935_
*1249 _0936_
*1250 _0937_
*1251 _0938_
*1252 _0939_
*1253 _0940_
*1254 _0941_
*1255 _0942_
*1256 _0943_
*1257 _0944_
*1258 _0945_
*1259 _0946_
*1260 _0947_
*1261 _0948_
*1262 _0949_
*1263 _0950_
*1264 _0951_
*1265 _0952_
*1266 _0953_
*1267 _0954_
*1268 _0955_
*1269 _0956_
*1270 _0957_
*1271 _0958_
*1272 _0959_
*1273 _0960_
*1274 _0961_
*1275 _0962_
*1276 _0963_
*1277 _0964_
*1278 _0965_
*1279 _0966_
*1280 _0967_
*1281 _0968_
*1282 _0969_
*1283 _0970_
*1284 _0971_
*1285 _0972_
*1286 _0973_
*1287 _0974_
*1288 _0975_
*1289 _0976_
*1290 _0977_
*1291 _0978_
*1292 _0979_
*1293 _0980_
*1294 _0981_
*1295 _0982_
*1296 _0983_
*1297 _0984_
*1298 _0985_
*1299 _0986_
*1300 _0987_
*1301 _0988_
*1302 _0989_
*1303 _0990_
*1304 _0991_
*1305 _0992_
*1306 _0993_
*1307 _0994_
*1308 _0995_
*1309 _0996_
*1310 _0997_
*1311 _0998_
*1312 _0999_
*1313 _1000_
*1314 _1001_
*1315 _1002_
*1316 _1003_
*1317 _1004_
*1318 _1005_
*1319 _1006_
*1320 _1007_
*1321 _1008_
*1322 _1009_
*1323 _1010_
*1324 _1011_
*1325 _1012_
*1326 _1013_
*1327 _1014_
*1328 _1015_
*1329 _1016_
*1330 _1017_
*1331 _1018_
*1332 _1019_
*1333 _1020_
*1334 _1021_
*1335 _1022_
*1336 _1023_
*1337 _1024_
*1338 _1025_
*1339 _1026_
*1340 _1027_
*1341 _1028_
*1342 _1029_
*1343 _1030_
*1344 _1031_
*1345 _1032_
*1346 _1033_
*1347 _1034_
*1348 _1035_
*1349 _1036_
*1350 _1037_
*1351 _1038_
*1352 _1039_
*1353 _1040_
*1354 _1041_
*1355 _1042_
*1356 _1043_
*1357 _1044_
*1358 _1045_
*1359 _1046_
*1360 _1047_
*1361 _1048_
*1362 _1049_
*1363 _1050_
*1364 _1051_
*1365 _1052_
*1366 _1053_
*1367 _1054_
*1368 _1055_
*1369 _1056_
*1370 _1057_
*1371 _1058_
*1372 _1059_
*1373 _1060_
*1374 _1061_
*1375 _1062_
*1376 _1063_
*1377 _1064_
*1378 _1065_
*1379 _1066_
*1380 _1067_
*1381 _1068_
*1382 _1069_
*1383 _1070_
*1384 _1071_
*1385 _1072_
*1386 _1073_
*1387 _1074_
*1388 _1075_
*1389 _1076_
*1390 _1077_
*1391 _1078_
*1392 _1079_
*1393 _1080_
*1394 _1081_
*1395 _1082_
*1396 _1083_
*1397 _1084_
*1398 _1085_
*1399 _1086_
*1400 _1087_
*1401 _1088_
*1402 _1089_
*1403 _1090_
*1404 _1091_
*1405 _1092_
*1406 _1093_
*1407 _1094_
*1408 _1095_
*1409 _1096_
*1410 _1097_
*1411 _1098_
*1412 _1099_
*1413 _1100_
*1414 _1101_
*1415 _1102_
*1416 _1103_
*1417 _1104_
*1418 _1105_
*1419 _1106_
*1420 _1107_
*1421 _1108_
*1422 _1109_
*1423 _1110_
*1424 _1111_
*1425 _1112_
*1426 _1113_
*1427 _1114_
*1428 _1115_
*1429 _1116_
*1430 _1117_
*1431 _1118_
*1432 _1119_
*1433 _1120_
*1434 _1121_
*1435 _1122_
*1436 _1123_
*1437 _1124_
*1438 _1125_
*1439 _1126_
*1440 _1127_
*1441 _1128_
*1442 _1129_
*1443 _1130_
*1444 _1131_
*1445 _1132_
*1446 _1133_
*1447 _1134_
*1448 _1135_
*1449 _1136_
*1450 _1137_
*1451 _1138_
*1452 _1139_
*1453 _1140_
*1454 _1141_
*1455 _1142_
*1456 _1143_
*1457 _1144_
*1458 _1145_
*1459 _1146_
*1460 _1147_
*1461 _1148_
*1462 _1149_
*1463 _1150_
*1464 _1151_
*1465 _1152_
*1466 _1153_
*1467 _1154_
*1468 _1155_
*1469 _1156_
*1470 _1157_
*1471 _1158_
*1472 _1159_
*1473 _1160_
*1474 _1161_
*1475 _1162_
*1476 _1163_
*1477 _1164_
*1478 _1165_
*1479 _1166_
*1480 _1167_
*1481 _1168_
*1482 _1169_
*1483 _1170_
*1484 _1171_
*1485 _1172_
*1486 _1173_
*1487 _1174_
*1488 _1175_
*1489 _1176_
*1490 _1177_
*1491 _1178_
*1492 _1179_
*1493 _1180_
*1494 _1181_
*1495 _1182_
*1496 _1183_
*1497 _1184_
*1498 _1185_
*1499 _1186_
*1500 _1187_
*1501 _1188_
*1502 _1189_
*1503 _1190_
*1504 _1191_
*1505 _1192_
*1506 _1193_
*1507 _1194_
*1508 _1195_
*1509 _1196_
*1510 _1197_
*1511 _1198_
*1512 _1199_
*1513 _1200_
*1514 _1201_
*1515 _1202_
*1516 _1203_
*1517 _1204_
*1518 _1205_
*1519 _1206_
*1520 _1207_
*1521 _1208_
*1522 _1209_
*1523 _1210_
*1524 _1211_
*1525 _1212_
*1526 _1213_
*1527 _1214_
*1528 _1215_
*1529 _1216_
*1530 _1217_
*1531 _1218_
*1532 _1219_
*1533 _1220_
*1534 _1221_
*1535 _1222_
*1536 _1223_
*1537 _1224_
*1538 _1225_
*1539 _1226_
*1540 _1227_
*1541 _1228_
*1542 _1229_
*1543 _1230_
*1544 _1231_
*1545 _1232_
*1546 _1233_
*1547 _1234_
*1548 _1235_
*1549 _1236_
*1550 _1237_
*1551 _1238_
*1552 _1239_
*1553 _1240_
*1554 _1241_
*1555 _1242_
*1556 _1243_
*1557 _1244_
*1558 _1245_
*1559 _1246_
*1560 _1247_
*1561 _1248_
*1562 _1249_
*1563 _1250_
*1564 _1251_
*1565 _1252_
*1566 _1253_
*1567 _1254_
*1568 _1255_
*1569 _1256_
*1570 _1257_
*1571 _1258_
*1572 _1259_
*1573 _1260_
*1574 _1261_
*1575 _1262_
*1576 _1263_
*1577 _1264_
*1578 _1265_
*1579 _1266_
*1580 _1267_
*1581 _1268_
*1582 _1269_
*1583 _1270_
*1584 _1271_
*1585 _1272_
*1586 _1273_
*1587 _1274_
*1588 _1275_
*1589 _1276_
*1590 _1277_
*1591 _1278_
*1592 _1279_
*1593 _1280_
*1594 _1281_
*1595 _1282_
*1596 _1283_
*1597 _1284_
*1598 _1285_
*1599 _1286_
*1600 _1287_
*1601 _1288_
*1602 _1289_
*1603 _1290_
*1604 _1291_
*1605 _1292_
*1606 _1293_
*1607 _1294_
*1608 _1295_
*1609 _1296_
*1610 _1297_
*1611 _1298_
*1612 _1299_
*1613 _1300_
*1614 _1301_
*1615 _1302_
*1616 _1303_
*1617 _1304_
*1618 _1305_
*1619 _1306_
*1620 _1307_
*1621 _1308_
*1622 _1309_
*1623 _1310_
*1624 _1311_
*1625 _1312_
*1626 _1313_
*1627 _1314_
*1628 _1315_
*1629 _1316_
*1630 _1317_
*1631 _1318_
*1632 _1319_
*1633 _1320_
*1634 _1321_
*1635 _1322_
*1636 _1323_
*1637 _1324_
*1638 _1325_
*1639 _1326_
*1640 _1327_
*1641 _1328_
*1642 _1329_
*1643 _1330_
*1644 _1331_
*1645 _1332_
*1646 _1333_
*1647 _1334_
*1648 _1335_
*1649 _1336_
*1650 _1337_
*1651 _1338_
*1652 _1339_
*1653 _1340_
*1654 _1341_
*1655 _1342_
*1656 _1343_
*1657 _1344_
*1658 _1345_
*1659 _1346_
*1660 _1347_
*1661 _1348_
*1662 _1349_
*1663 _1350_
*1664 _1351_
*1665 _1352_
*1666 _1353_
*1667 _1354_
*1668 _1355_
*1669 _1356_
*1670 _1357_
*1671 _1358_
*1672 _1359_
*1673 _1360_
*1674 _1361_
*1675 _1362_
*1676 _1363_
*1677 _1364_
*1678 _1365_
*1679 _1366_
*1680 _1367_
*1681 _1368_
*1682 _1369_
*1683 _1370_
*1684 _1371_
*1685 _1372_
*1686 _1373_
*1687 _1374_
*1688 _1375_
*1689 _1376_
*1690 _1377_
*1691 _1378_
*1692 _1379_
*1693 _1380_
*1694 _1381_
*1695 _1382_
*1696 _1383_
*1697 _1384_
*1698 _1385_
*1699 _1386_
*1700 _1387_
*1701 _1388_
*1702 _1389_
*1703 _1390_
*1704 _1391_
*1705 _1392_
*1706 _1393_
*1707 _1394_
*1708 _1395_
*1709 _1396_
*1710 _1397_
*1711 _1398_
*1712 _1399_
*1713 _1400_
*1714 _1401_
*1715 _1402_
*1716 _1403_
*1717 _1404_
*1718 _1405_
*1719 _1406_
*1720 _1407_
*1721 _1408_
*1722 _1409_
*1723 _1410_
*1724 _1411_
*1725 _1412_
*1726 _1413_
*1727 _1414_
*1728 _1415_
*1729 _1416_
*1730 _1417_
*1731 _1418_
*1732 _1419_
*1733 _1420_
*1734 _1421_
*1735 _1422_
*1736 _1423_
*1737 _1424_
*1738 _1425_
*1739 _1426_
*1740 _1427_
*1741 _1428_
*1742 _1429_
*1743 _1430_
*1744 _1431_
*1745 _1432_
*1746 _1433_
*1747 _1434_
*1748 _1435_
*1749 _1436_
*1750 _1437_
*1751 _1438_
*1752 _1439_
*1753 _1440_
*1754 _1441_
*1755 _1442_
*1756 _1443_
*1757 _1444_
*1758 _1445_
*1759 _1446_
*1760 _1447_
*1761 _1448_
*1762 _1449_
*1763 _1450_
*1764 _1451_
*1765 _1452_
*1766 _1453_
*1767 _1454_
*1768 _1455_
*1769 _1456_
*1770 _1457_
*1771 _1458_
*1772 _1459_
*1773 _1460_
*1774 _1461_
*1775 _1462_
*1776 _1463_
*1777 _1464_
*1778 _1465_
*1779 _1466_
*1780 _1467_
*1781 _1468_
*1782 _1469_
*1783 _1470_
*1784 _1471_
*1785 _1472_
*1786 _1473_
*1787 _1474_
*1788 _1475_
*1789 _1476_
*1790 _1477_
*1791 _1478_
*1792 _1479_
*1793 _1480_
*1794 _1481_
*1795 _1482_
*1796 _1483_
*1797 _1484_
*1798 _1485_
*1799 _1486_
*1800 _1487_
*1801 _1488_
*1802 _1489_
*1803 _1490_
*1804 _1491_
*1805 _1492_
*1806 _1493_
*1807 _1494_
*1808 _1495_
*1809 _1496_
*1810 _1497_
*1811 _1498_
*1812 _1499_
*1813 _1500_
*1814 _1501_
*1815 _1502_
*1816 _1503_
*1817 _1504_
*1818 _1505_
*1819 _1506_
*1820 _1507_
*1821 _1508_
*1822 _1509_
*1823 _1510_
*1824 _1511_
*1825 _1512_
*1826 _1513_
*1827 _1514_
*1828 _1515_
*1829 _1516_
*1830 _1517_
*1831 _1518_
*1832 _1519_
*1833 _1520_
*1834 _1521_
*1835 _1522_
*1836 _1523_
*1837 _1524_
*1838 _1525_
*1839 _1526_
*1840 _1527_
*1841 _1528_
*1842 _1529_
*1843 _1530_
*1844 _1531_
*1845 _1532_
*1846 _1533_
*1847 _1534_
*1848 _1535_
*1849 _1536_
*1850 _1537_
*1851 _1538_
*1852 _1539_
*1853 _1540_
*1854 _1541_
*1855 _1542_
*1856 _1543_
*1857 _1544_
*1858 _1545_
*1859 _1546_
*1860 _1547_
*1861 _1548_
*1862 _1549_
*1863 _1550_
*1864 _1551_
*1865 _1552_
*1866 _1553_
*1867 _1554_
*1868 _1555_
*1869 _1556_
*1870 _1557_
*1871 _1558_
*1872 _1559_
*1873 _1560_
*1874 _1561_
*1875 _1562_
*1876 _1563_
*1877 _1564_
*1878 _1565_
*1879 _1566_
*1880 _1567_
*1881 _1568_
*1882 _1569_
*1883 _1570_
*1884 _1571_
*1885 _1572_
*1886 _1573_
*1887 _1574_
*1888 _1575_
*1889 _1576_
*1890 _1577_
*1891 _1578_
*1892 _1579_
*1893 _1580_
*1894 _1581_
*1895 _1582_
*1896 _1583_
*1897 _1584_
*1898 _1585_
*1899 _1586_
*1900 _1587_
*1901 _1588_
*1902 _1589_
*1903 _1590_
*1904 _1591_
*1905 _1592_
*1906 _1593_
*1907 _1594_
*1908 _1595_
*1909 _1596_
*1910 _1597_
*1911 _1598_
*1912 _1599_
*1913 _1600_
*1914 _1601_
*1915 _1602_
*1916 _1603_
*1917 _1604_
*1918 _1605_
*1919 _1606_
*1920 _1607_
*1921 _1608_
*1922 _1609_
*1923 _1610_
*1924 _1611_
*1925 _1612_
*1926 _1613_
*1927 _1614_
*1928 _1615_
*1929 _1616_
*1930 _1617_
*1931 _1618_
*1932 _1619_
*1933 _1620_
*1934 _1621_
*1935 _1622_
*1936 _1623_
*1937 _1624_
*1938 _1625_
*1939 _1626_
*1940 _1627_
*1941 _1628_
*1942 _1629_
*1943 _1630_
*1944 _1631_
*1945 _1632_
*1946 _1633_
*1947 _1634_
*1948 _1635_
*1949 _1636_
*1950 _1637_
*1951 _1638_
*1952 _1639_
*1953 _1640_
*1954 _1641_
*1955 _1642_
*1956 _1643_
*1957 _1644_
*1958 _1645_
*1959 _1646_
*1960 _1647_
*1961 _1648_
*1962 _1649_
*1963 _1650_
*1964 _1651_
*1965 _1652_
*1966 _1653_
*1967 _1654_
*1968 _1655_
*1969 _1656_
*1970 _1657_
*1971 _1658_
*1972 _1659_
*1973 _1660_
*1974 _1661_
*1975 _1662_
*1976 _1663_
*1977 _1664_
*1978 _1665_
*1979 _1666_
*1980 _1667_
*1981 _1668_
*1982 _1669_
*1983 _1670_
*1984 _1671_
*1985 _1672_
*1986 _1673_
*1987 _1674_
*1988 _1675_
*1989 _1676_
*1990 _1677_
*1991 _1678_
*1992 _1679_
*1993 _1680_
*1994 _1681_
*1995 _1682_
*1996 _1683_
*1997 _1684_
*1998 _1685_
*1999 _1686_
*2000 _1687_
*2001 _1688_
*2002 _1689_
*2003 _1690_
*2004 _1691_
*2005 _1692_
*2006 _1693_
*2007 _1694_
*2008 _1695_
*2009 _1696_
*2010 _1697_
*2011 _1698_
*2012 _1699_
*2013 _1700_
*2014 _1701_
*2015 _1702_
*2016 _1703_
*2017 _1704_
*2018 _1705_
*2019 _1706_
*2020 _1707_
*2021 _1708_
*2022 _1709_
*2023 _1710_
*2024 _1711_
*2025 _1712_
*2026 _1713_
*2027 _1714_
*2028 _1715_
*2029 _1716_
*2030 _1717_
*2031 _1718_
*2032 _1719_
*2033 _1720_
*2034 _1721_
*2035 _1722_
*2036 _1723_
*2037 _1724_
*2038 _1725_
*2039 _1726_
*2040 _1727_
*2041 _1728_
*2042 _1729_
*2043 _1730_
*2044 _1731_
*2045 _1732_
*2046 _1733_
*2047 _1734_
*2048 _1735_
*2049 _1736_
*2050 _1737_
*2051 _1738_
*2052 _1739_
*2053 _1740_
*2054 _1741_
*2055 _1742_
*2056 _1743_
*2057 _1744_
*2058 _1745_
*2059 _1746_
*2060 _1747_
*2061 _1748_
*2062 _1749_
*2063 _1750_
*2064 _1751_
*2065 _1752_
*2066 _1753_
*2067 _1754_
*2068 _1755_
*2069 _1756_
*2070 _1757_
*2071 _1758_
*2072 _1759_
*2073 _1760_
*2074 _1761_
*2075 _1762_
*2076 _1763_
*2077 _1764_
*2078 clkbuf_0_clk
*2079 _1766_
*2080 _1767_
*2081 _1768_
*2082 _1769_
*2083 _1770_
*2084 _1771_
*2085 _1772_
*2086 _1773_
*2087 bnc_image_generator\.BNC_x\[0\]\$_DFF_P_
*2088 bnc_image_generator\.BNC_x\[1\]\$_DFF_P_
*2089 bnc_image_generator\.BNC_x\[2\]\$_DFF_P_
*2090 bnc_image_generator\.BNC_x\[3\]\$_DFF_P_
*2091 bnc_image_generator\.BNC_x\[4\]\$_DFF_P_
*2092 bnc_image_generator\.BNC_x\[5\]\$_DFF_P_
*2093 bnc_image_generator\.BNC_x\[6\]\$_DFF_P_
*2094 bnc_image_generator\.BNC_x\[7\]\$_DFF_P_
*2095 bnc_image_generator\.BNC_y\[0\]\$_DFF_P_
*2096 bnc_image_generator\.BNC_y\[1\]\$_DFF_P_
*2097 bnc_image_generator\.BNC_y\[2\]\$_DFF_P_
*2098 bnc_image_generator\.BNC_y\[3\]\$_DFF_P_
*2099 bnc_image_generator\.BNC_y\[4\]\$_DFF_P_
*2100 bnc_image_generator\.BNC_y\[5\]\$_DFF_P_
*2101 bnc_image_generator\.BNC_y\[6\]\$_DFF_P_
*2102 bnc_image_generator\.counter\[0\]\$_SDFF_PN0_
*2103 bnc_image_generator\.counter\[1\]\$_SDFF_PN0_
*2104 bnc_image_generator\.counter\[2\]\$_SDFF_PN0_
*2105 bnc_image_generator\.counter\[3\]\$_SDFF_PN0_
*2106 bnc_image_generator\.counter\[4\]\$_SDFF_PN0_
*2107 hvsync_gen\.hpos\[0\]\$_SDFF_PP0_
*2108 hvsync_gen\.hpos\[1\]\$_SDFF_PP0_
*2109 hvsync_gen\.hpos\[2\]\$_SDFF_PP0_
*2110 hvsync_gen\.hpos\[3\]\$_SDFF_PP0_
*2111 hvsync_gen\.hpos\[4\]\$_SDFF_PP0_
*2112 hvsync_gen\.hpos\[5\]\$_SDFF_PP0_
*2113 hvsync_gen\.hpos\[6\]\$_SDFF_PP0_
*2114 hvsync_gen\.hpos\[7\]\$_SDFF_PP0_
*2115 hvsync_gen\.hpos\[8\]\$_SDFF_PP0_
*2116 hvsync_gen\.hpos\[9\]\$_SDFF_PP0_
*2117 hvsync_gen\.hsync\$_DFF_P_
*2118 hvsync_gen\.vpos\[0\]\$_SDFFCE_PP0P_
*2119 hvsync_gen\.vpos\[1\]\$_SDFFCE_PP0P_
*2120 hvsync_gen\.vpos\[2\]\$_SDFFCE_PP0P_
*2121 hvsync_gen\.vpos\[3\]\$_SDFFCE_PP0P_