*SPEF "ieee 1481-1999"
*DESIGN "tt_um_dvxf_dj8v"
*DATE "15:07:12 Thursday October 31, 2024"
*VENDOR "The OpenROAD Project"
*PROGRAM "OpenROAD"
*VERSION "v2.0-16649-g40811f37f"
*DESIGN_FLOW "NAME_SCOPE LOCAL" "PIN_CAP NONE"
*DIVIDER /
*DELIMITER :
*BUS_DELIMITER []
*T_UNIT 1 NS
*C_UNIT 1 PF
*R_UNIT 1 OHM
*L_UNIT 1 HENRY

*NAME_MAP
*1 DJ8\.ACC\[0\]
*2 DJ8\.ACC\[1\]
*3 DJ8\.ACC\[2\]
*4 DJ8\.ACC\[3\]
*5 DJ8\.ACC\[4\]
*6 DJ8\.ACC\[5\]
*7 DJ8\.ACC\[6\]
*8 DJ8\.ACC\[7\]
*9 DJ8\.ALU\.c_in
*10 DJ8\.ALU\.opalu\[0\]
*11 DJ8\.ALU\.opalu\[1\]
*12 DJ8\.ALU\.opalu\[2\]
*13 DJ8\.EF\[0\]
*14 DJ8\.EF\[10\]
*15 DJ8\.EF\[11\]
*16 DJ8\.EF\[12\]
*17 DJ8\.EF\[13\]
*18 DJ8\.EF\[14\]
*19 DJ8\.EF\[15\]
*20 DJ8\.EF\[1\]
*21 DJ8\.EF\[2\]
*22 DJ8\.EF\[3\]
*23 DJ8\.EF\[4\]
*24 DJ8\.EF\[5\]
*25 DJ8\.EF\[6\]
*26 DJ8\.EF\[7\]
*27 DJ8\.EF\[8\]
*28 DJ8\.EF\[9\]
*29 DJ8\.GH\[0\]
*30 DJ8\.GH\[10\]
*31 DJ8\.GH\[11\]
*32 DJ8\.GH\[12\]
*33 DJ8\.GH\[13\]
*34 DJ8\.GH\[14\]
*35 DJ8\.GH\[15\]
*36 DJ8\.GH\[1\]
*37 DJ8\.GH\[2\]
*38 DJ8\.GH\[3\]
*39 DJ8\.GH\[4\]
*40 DJ8\.GH\[5\]
*41 DJ8\.GH\[6\]
*42 DJ8\.GH\[7\]
*43 DJ8\.GH\[8\]
*44 DJ8\.GH\[9\]
*45 DJ8\.REGS\.regs\[1\]\[0\]
*46 DJ8\.REGS\.regs\[1\]\[1\]
*47 DJ8\.REGS\.regs\[1\]\[2\]
*48 DJ8\.REGS\.regs\[1\]\[3\]
*49 DJ8\.REGS\.regs\[1\]\[4\]
*50 DJ8\.REGS\.regs\[1\]\[5\]
*51 DJ8\.REGS\.regs\[1\]\[6\]
*52 DJ8\.REGS\.regs\[1\]\[7\]
*53 DJ8\.REGS\.regs\[2\]\[0\]
*54 DJ8\.REGS\.regs\[2\]\[1\]
*55 DJ8\.REGS\.regs\[2\]\[2\]
*56 DJ8\.REGS\.regs\[2\]\[3\]
*57 DJ8\.REGS\.regs\[2\]\[4\]
*58 DJ8\.REGS\.regs\[2\]\[5\]
*59 DJ8\.REGS\.regs\[2\]\[6\]
*60 DJ8\.REGS\.regs\[2\]\[7\]
*61 DJ8\.REGS\.regs\[3\]\[0\]
*62 DJ8\.REGS\.regs\[3\]\[1\]
*63 DJ8\.REGS\.regs\[3\]\[2\]
*64 DJ8\.REGS\.regs\[3\]\[3\]
*65 DJ8\.REGS\.regs\[3\]\[4\]
*66 DJ8\.REGS\.regs\[3\]\[5\]
*67 DJ8\.REGS\.regs\[3\]\[6\]
*68 DJ8\.REGS\.regs\[3\]\[7\]
*69 DJ8\.REGS\.write_addr\[0\]
*70 DJ8\.REGS\.write_addr\[1\]
*71 DJ8\.REGS\.write_addr\[2\]
*72 DJ8\.flag_Z
*73 DJ8\.ir\[0\]
*74 DJ8\.ir\[14\]
*75 DJ8\.ir\[15\]
*76 DJ8\.ir\[1\]
*77 DJ8\.ir\[2\]
*78 DJ8\.ir\[3\]
*79 DJ8\.ir\[4\]
*80 DJ8\.ir\[5\]
*81 DJ8\.ir\[6\]
*82 DJ8\.ir\[7\]
*83 DJ8\.pc\[0\]
*84 DJ8\.pc\[10\]
*85 DJ8\.pc\[11\]
*86 DJ8\.pc\[12\]
*87 DJ8\.pc\[13\]
*88 DJ8\.pc\[14\]
*89 DJ8\.pc\[1\]
*90 DJ8\.pc\[2\]
*91 DJ8\.pc\[3\]
*92 DJ8\.pc\[4\]
*93 DJ8\.pc\[5\]
*94 DJ8\.pc\[6\]
*95 DJ8\.pc\[7\]
*96 DJ8\.pc\[8\]
*97 DJ8\.pc\[9\]
*98 DJ8\.state\[0\]
*99 DJ8\.state\[1\]
*100 DJ8\.state\[2\]
*101 DJ8\.state\[3\]
*102 DJ8\.we
*103 _0000_
*104 _0001_
*105 _0002_
*106 _0003_
*107 _0004_
*108 _0005_
*109 _0006_
*110 _0007_
*111 _0008_
*112 _0009_
*113 _0010_
*114 _0011_
*115 _0012_
*116 _0013_
*117 _0014_
*118 _0015_
*119 _0016_
*120 _0017_
*121 _0018_
*122 _0019_
*123 _0020_
*124 _0021_
*125 _0022_
*126 _0023_
*127 _0024_
*128 _0025_
*129 _0026_
*130 _0027_
*131 _0028_
*132 _0029_
*133 _0030_
*134 _0031_
*135 _0032_
*136 _0033_
*137 _0034_
*138 _0035_
*139 _0036_
*140 _0037_
*141 _0038_
*142 _0039_
*143 _0040_
*144 _0041_
*145 clknet_0_clk
*146 _0043_
*147 _0044_
*148 _0045_
*149 _0046_
*150 _0047_
*151 _0048_
*152 _0049_
*153 _0050_
*154 _0051_
*155 _0052_
*156 _0053_
*157 _0054_
*158 _0055_
*159 _0056_
*160 _0057_
*161 _0058_
*162 _0059_
*163 _0060_
*164 _0061_
*165 _0062_
*166 _0063_
*167 _0064_
*168 _0065_
*169 _0066_
*170 _0067_
*171 _0068_
*172 _0069_
*173 _0070_
*174 _0071_
*175 _0072_
*176 _0073_
*177 _0074_
*178 _0075_
*179 _0076_
*180 _0077_
*181 _0078_
*182 _0079_
*183 _0080_
*184 _0081_
*185 _0082_
*186 _0083_
*187 _0084_
*188 _0085_
*189 _0086_
*190 _0087_
*191 _0088_
*192 _0089_
*193 _0090_
*194 _0091_
*195 _0092_
*196 _0093_
*197 _0094_
*198 _0095_
*199 _0096_
*200 _0097_
*201 _0098_
*202 _0099_
*203 _0100_
*204 _0101_
*205 _0102_
*206 _0103_
*207 _0104_
*208 _0105_
*209 _0106_
*210 _0107_
*211 _0108_
*212 _0109_
*213 _0110_
*214 _0111_
*215 _0112_
*216 _0113_
*217 _0114_
*218 _0115_
*219 _0116_
*220 _0117_
*221 _0118_
*222 _0119_
*223 _0120_
*224 _0121_
*225 _0122_
*226 _0123_
*227 _0124_
*228 _0125_
*229 _0126_
*230 _0127_
*231 _0128_
*232 _0129_
*233 _0130_
*234 _0131_
*235 _0132_
*236 _0133_
*237 _0134_
*238 _0135_
*239 _0136_
*240 _0137_
*241 _0138_
*242 _0139_
*243 _0140_
*244 _0141_
*245 _0142_
*246 _0143_
*247 _0144_
*248 _0145_
*249 _0146_
*250 _0147_
*251 _0148_
*252 _0149_
*253 _0150_
*254 _0151_
*255 _0152_
*256 _0153_
*257 _0154_
*258 _0155_
*259 _0156_
*260 _0157_
*261 _0158_
*262 _0159_
*263 _0160_
*264 _0161_
*265 _0162_
*266 _0163_
*267 _0164_
*268 _0165_
*269 _0166_
*270 _0167_
*271 _0168_
*272 _0169_
*273 _0170_
*274 _0171_
*275 _0172_
*276 _0173_
*277 _0174_
*278 _0175_
*279 _0176_
*280 _0177_
*281 _0178_
*282 _0179_
*283 _0180_
*284 _0181_
*285 _0182_
*286 _0183_
*287 _0184_
*288 _0185_
*289 _0186_
*290 _0187_
*291 _0188_
*292 _0189_
*293 _0190_
*294 _0191_
*295 _0192_
*296 _0193_
*297 _0194_
*298 _0195_
*299 _0196_
*300 _0197_
*301 _0198_
*302 _0199_
*303 _0200_
*304 _0201_
*305 _0202_
*306 _0203_
*307 _0204_
*308 _0205_
*309 _0206_
*310 _0207_
*311 _0208_
*312 _0209_
*313 _0210_
*314 _0211_
*315 _0212_
*316 _0213_
*317 _0214_
*318 _0215_
*319 _0216_
*320 _0217_
*321 _0218_
*322 _0219_
*323 _0220_
*324 _0221_
*325 _0222_
*326 _0223_
*327 _0224_
*328 _0225_
*329 _0226_
*330 _0227_
*331 _0228_
*332 _0229_
*333 _0230_
*334 _0231_
*335 _0232_
*336 _0233_
*337 _0234_
*338 _0235_
*339 _0236_
*340 _0237_
*341 _0238_
*342 _0239_
*343 _0240_
*344 _0241_
*345 _0242_
*346 _0243_
*347 _0244_
*348 _0245_
*349 _0246_
*350 _0247_
*351 _0248_
*352 _0249_
*353 _0250_
*354 _0251_
*355 _0252_
*356 _0253_
*357 _0254_
*358 _0255_
*359 _0256_
*360 _0257_
*361 _0258_
*362 _0259_
*363 _0260_
*364 _0261_
*365 _0262_
*366 _0263_
*367 _0264_
*368 _0265_
*369 _0266_
*370 _0267_
*371 _0268_
*372 _0269_
*373 _0270_
*374 _0271_
*375 _0272_
*376 _0273_
*377 _0274_
*378 _0275_
*379 _0276_
*380 _0277_
*381 _0278_
*382 _0279_
*383 _0280_
*384 _0281_
*385 _0282_
*386 _0283_
*387 _0284_
*388 _0285_
*389 _0286_
*390 _0287_
*391 _0288_
*392 _0289_
*393 _0290_
*394 _0291_
*395 _0292_
*396 _0293_
*397 _0294_
*398 _0295_
*399 _0296_
*400 _0297_
*401 _0298_
*402 _0299_
*403 _0300_
*404 _0301_
*405 _0302_
*406 _0303_
*407 _0304_
*408 _0305_
*409 _0306_
*410 _0307_
*411 _0308_
*412 _0309_
*413 _0310_
*414 _0311_
*415 _0312_
*416 _0313_
*417 _0314_
*418 _0315_
*419 _0316_
*420 _0317_
*421 _0318_
*422 _0319_
*423 _0320_
*424 _0321_
*425 _0322_
*426 _0323_
*427 _0324_
*428 _0325_
*429 _0326_
*430 _0327_
*431 _0328_
*432 _0329_
*433 _0330_
*434 _0331_
*435 _0332_
*436 _0333_
*437 _0334_
*438 _0335_
*439 _0336_
*440 _0337_
*441 _0338_
*442 _0339_
*443 _0340_
*444 _0341_
*445 _0342_
*446 _0343_
*447 _0344_
*448 _0345_
*449 _0346_
*450 _0347_
*451 _0348_
*452 _0349_
*453 _0350_
*454 _0351_
*455 _0352_
*456 _0353_
*457 _0354_
*458 _0355_
*459 _0356_
*460 _0357_
*461 _0358_
*462 _0359_
*463 _0360_
*464 _0361_
*465 _0362_
*466 _0363_
*467 _0364_
*468 _0365_
*469 _0366_
*470 _0367_
*471 _0368_
*472 _0369_
*473 _0370_
*474 _0371_
*475 _0372_
*476 _0373_
*477 _0374_
*478 _0375_
*479 _0376_
*480 _0377_
*481 _0378_
*482 _0379_
*483 _0380_
*484 _0381_
*485 _0382_
*486 _0383_
*487 _0384_
*488 _0385_
*489 _0386_
*490 _0387_
*491 _0388_
*492 _0389_
*493 _0390_
*494 _0391_
*495 _0392_
*496 _0393_
*497 _0394_
*498 _0395_
*499 _0396_
*500 _0397_
*501 _0398_
*502 _0399_
*503 _0400_
*504 _0401_
*505 _0402_
*506 _0403_
*507 _0404_
*508 _0405_
*509 _0406_
*510 _0407_
*511 _0408_
*512 _0409_
*513 _0410_
*514 _0411_
*515 _0412_
*516 _0413_
*517 _0414_
*518 _0415_
*519 _0416_
*520 _0417_
*521 _0418_
*522 _0419_
*523 _0420_
*524 _0421_
*525 _0422_
*526 _0423_
*527 _0424_
*528 _0425_
*529 _0426_
*530 _0427_
*531 _0428_
*532 _0429_
*533 _0430_
*534 _0431_
*535 _0432_
*536 _0433_
*537 _0434_
*538 _0435_
*539 _0436_
*540 _0437_
*541 _0438_
*542 _0439_
*543 _0440_
*544 _0441_
*545 _0442_
*546 _0443_
*547 _0444_
*548 _0445_
*549 _0446_
*550 _0447_
*551 _0448_
*552 _0449_
*553 _0450_
*554 _0451_
*555 _0452_
*556 _0453_
*557 _0454_
*558 _0455_
*559 _0456_
*560 _0457_
*561 _0458_
*562 _0459_
*563 _0460_
*564 _0461_
*565 _0462_
*566 _0463_
*567 _0464_
*568 _0465_
*569 _0466_
*570 _0467_
*571 _0468_
*572 _0469_
*573 _0470_
*574 _0471_
*575 _0472_
*576 _0473_
*577 _0474_
*578 _0475_
*579 _0476_
*580 _0477_
*581 _0478_
*582 _0479_
*583 _0480_
*584 _0481_
*585 _0482_
*586 _0483_
*587 _0484_
*588 _0485_
*589 _0486_
*590 _0487_
*591 _0488_
*592 _0489_
*593 _0490_
*594 _0491_
*595 _0492_
*596 _0493_
*597 _0494_
*598 _0495_
*599 _0496_
*600 _0497_
*601 _0498_
*602 _0499_
*603 _0500_
*604 _0501_
*605 _0502_
*606 _0503_
*607 _0504_
*608 _0505_
*609 _0506_
*610 _0507_
*611 _0508_
*612 _0509_
*613 _0510_
*614 _0511_
*615 _0512_
*616 _0513_
*617 _0514_
*618 _0515_
*619 _0516_
*620 _0517_
*621 _0518_
*622 _0519_
*623 _0520_
*624 _0521_
*625 _0522_
*626 _0523_
*627 _0524_
*628 _0525_
*629 _0526_
*630 _0527_
*631 _0528_
*632 _0529_
*633 _0530_
*634 _0531_
*635 _0532_
*636 _0533_
*637 _0534_
*638 _0535_
*639 _0536_
*640 _0537_
*641 _0538_
*642 _0539_
*643 _0540_
*644 _0541_
*645 _0542_
*646 _0543_
*647 _0544_
*648 _0545_
*649 _0546_
*650 _0547_
*651 _0548_
*652 _0549_
*653 _0550_
*654 _0551_
*655 _0552_
*656 _0553_
*657 _0554_
*658 _0555_
*659 _0556_
*660 _0557_
*661 _0558_
*662 _0559_
*663 _0560_
*664 _0561_
*665 _0562_
*666 _0563_
*667 _0564_
*668 _0565_
*669 _0566_
*670 _0567_
*671 _0568_
*672 _0569_
*673 _0570_
*674 _0571_
*675 _0572_
*676 _0573_
*677 _0574_
*678 _0575_
*679 _0576_
*680 _0577_
*681 _0578_
*682 _0579_
*683 _0580_
*684 _0581_
*685 _0582_
*686 _0583_
*687 _0584_
*688 _0585_
*689 _0586_
*690 _0587_
*691 _0588_
*692 _0589_
*693 _0590_
*694 _0591_
*695 _0592_
*696 _0593_
*697 _0594_
*698 _0595_
*699 _0596_
*700 _0597_
*701 _0598_
*702 _0599_
*703 _0600_
*704 _0601_
*705 _0602_
*706 _0603_
*707 _0604_
*708 _0605_
*709 _0606_
*710 _0607_
*711 _0608_
*712 _0609_
*713 _0610_
*714 _0611_
*715 _0612_
*716 _0613_
*717 _0614_
*718 _0615_
*719 _0616_
*720 _0617_
*721 _0618_
*722 _0619_
*723 _0620_
*724 _0621_
*725 _0622_
*726 _0623_
*727 _0624_
*728 _0625_
*729 _0626_
*730 _0627_
*731 _0628_
*732 _0629_
*733 _0630_
*734 _0631_
*735 _0632_
*736 _0633_
*737 _0634_
*738 _0635_
*739 _0636_
*740 _0637_
*741 _0638_
*742 _0639_
*743 _0640_
*744 _0641_
*745 _0642_
*746 _0643_
*747 _0644_
*748 _0645_
*749 _0646_
*750 _0647_
*751 _0648_
*752 _0649_
*753 _0650_
*754 _0651_
*755 _0652_
*756 _0653_
*757 _0654_
*758 _0655_
*759 _0656_
*760 _0657_
*761 _0658_
*762 _0659_
*763 _0660_
*764 _0661_
*765 _0662_
*766 _0663_
*767 _0664_
*768 _0665_
*769 _0666_
*770 _0667_
*771 _0668_
*772 _0669_
*773 _0670_
*774 _0671_
*775 _0672_
*776 _0673_
*777 _0674_
*778 _0675_
*779 _0676_
*780 _0677_
*781 _0678_
*782 _0679_
*783 _0680_
*784 _0681_
*785 _0682_
*786 _0683_
*787 _0684_
*788 _0685_
*789 _0686_
*790 _0687_
*791 _0688_
*792 _0689_
*793 _0690_
*794 _0691_
*795 _0692_
*796 _0693_
*797 _0694_
*798 _0695_
*799 _0696_
*800 _0697_
*801 _0698_
*802 _0699_
*803 _0700_
*804 _0701_
*805 _0702_
*806 _0703_
*807 _0704_
*808 _0705_
*809 _0706_
*810 _0707_
*811 _0708_
*812 _0709_
*813 _0710_
*814 _0711_
*815 _0712_
*816 _0713_
*817 _0714_
*818 _0715_
*819 _0716_
*820 _0717_
*821 _0718_
*822 _0719_
*823 _0720_
*824 _0721_
*825 _0722_
*826 _0723_
*827 _0724_
*828 _0725_
*829 _0726_
*830 _0727_
*831 _0728_
*832 _0729_
*833 _0730_
*834 _0731_
*835 _0732_
*836 _0733_
*837 _0734_
*838 _0735_
*839 _0736_
*840 _0737_
*841 _0738_
*842 _0739_
*843 _0740_
*844 _0741_
*845 _0742_
*846 _0743_
*847 _0744_
*848 _0745_
*849 _0746_
*850 _0747_
*851 _0748_
*852 _0749_
*853 _0750_
*854 _0751_
*855 _0752_
*856 _0753_
*857 _0754_
*858 _0755_
*859 _0756_
*860 _0757_
*861 _0758_
*862 _0759_
*863 _0760_
*864 _0761_
*865 _0762_
*866 _0763_
*867 _0764_
*868 _0765_
*869 _0766_
*870 _0767_
*871 _0768_
*872 _0769_
*873 _0770_
*874 _0771_
*875 _0772_
*876 _0773_
*877 _0774_
*878 _0775_
*879 _0776_
*880 _0777_
*881 _0778_
*882 _0779_
*883 _0780_
*884 _0781_
*885 _0782_
*886 _0783_
*887 _0784_
*888 _0785_
*889 _0786_
*890 _0787_
*891 _0788_
*892 _0789_
*893 _0790_
*894 _0791_
*895 _0792_
*896 _0793_
*897 _0794_
*898 _0795_
*899 _0796_
*900 _0797_
*901 _0798_
*902 _0799_
*903 _0800_
*904 _0801_
*905 _0802_
*906 _0803_
*907 _0804_
*908 _0805_
*909 _0806_
*910 _0807_
*911 _0808_
*912 _0809_
*913 _0810_
*914 _0811_
*915 _0812_
*916 _0813_
*917 _0814_
*918 _0815_
*919 _0816_
*920 _0817_
*921 _0818_
*922 _0819_
*923 _0820_
*924 _0821_
*925 _0822_
*926 _0823_
*927 _0824_
*928 _0825_
*929 _0826_
*930 _0827_
*931 _0828_
*932 _0829_
*933 _0830_
*934 _0831_
*935 _0832_
*936 _0833_
*937 _0834_
*938 _0835_
*939 _0836_
*940 _0837_
*941 _0838_
*942 _0839_
*943 _0840_
*944 _0841_
*945 _0842_
*946 _0843_
*947 _0844_
*948 _0845_
*949 _0846_
*950 _0847_
*951 _0848_
*952 _0849_
*953 _0850_
*954 _0851_
*955 _0852_
*956 _0853_
*957 _0854_
*958 _0855_
*959 _0856_
*960 _0857_
*961 _0858_
*962 _0859_
*963 _0860_
*964 _0861_
*965 _0862_
*966 _0863_
*967 _0864_
*968 _0865_
*969 _0866_
*970 _0867_
*971 _0868_
*972 _0869_
*973 _0870_
*974 _0871_
*975 _0872_
*976 _0873_
*977 _0874_
*978 _0875_
*979 _0876_
*980 _0877_
*981 _0878_
*982 _0879_
*983 _0880_
*984 _0881_
*985 _0882_
*986 _0883_
*987 _0884_
*988 _0885_
*989 _0886_
*990 _0887_
*991 _0888_
*992 _0889_
*993 _0890_
*994 _0891_
*995 _0892_
*996 _0893_
*997 _0894_
*998 _0895_
*999 _0896_
*1000 _0897_
*1001 _0898_
*1002 _0899_
*1003 _0900_
*1004 _0901_
*1005 _0902_
*1006 _0903_
*1007 _0904_
*1008 _0905_
*1009 _0906_
*1010 _0907_
*1011 _0908_
*1012 _0909_
*1013 _0910_
*1014 _0911_
*1015 _0912_
*1016 _0913_
*1017 _0914_
*1018 _0915_
*1019 _0916_
*1020 _0917_
*1021 _0918_
*1022 _0919_
*1023 _0920_
*1024 _0921_
*1025 _0922_
*1026 _0923_
*1027 _0924_
*1028 _0925_
*1029 _0926_
*1030 _0927_
*1031 _0928_
*1032 _0929_
*1033 _0930_
*1034 _0931_
*1035 _0932_
*1036 _0933_
*1037 _0934_
*1038 _0935_
*1039 _0936_
*1040 _0937_
*1041 _0938_
*1042 _0939_
*1043 _0940_
*1044 _0941_
*1045 _0942_
*1046 _0943_
*1047 _0944_
*1048 _0945_
*1049 _0946_
*1050 _0947_
*1051 _0948_
*1052 _0949_
*1053 _0950_
*1054 _0951_
*1055 _0952_
*1056 _0953_
*1057 _0954_
*1058 _0955_
*1059 _0956_
*1060 _0957_
*1061 _0958_
*1062 _0959_
*1063 _0960_
*1064 _0961_
*1065 _0962_
*1066 _0963_
*1067 _0964_
*1068 _0965_
*1069 _0966_
*1070 _0967_
*1071 _0968_
*1072 _0969_
*1073 _0970_
*1074 _0971_
*1075 _0972_
*1076 _0973_
*1077 _0974_
*1078 _0975_
*1079 _0976_
*1080 _0977_
*1081 _0978_
*1082 _0979_
*1083 _0980_
*1084 _0981_
*1085 _0982_
*1086 _0983_
*1087 _0984_
*1088 _0985_
*1089 _0986_
*1090 _0987_
*1091 _0988_
*1092 _0989_
*1093 _0990_
*1094 _0991_
*1095 _0992_
*1096 _0993_
*1097 _0994_
*1098 _0995_
*1099 _0996_
*1100 _0997_
*1101 _0998_
*1102 _0999_
*1103 _1000_
*1104 _1001_
*1105 _1002_
*1106 _1003_
*1107 _1004_
*1108 _1005_
*1109 _1006_
*1110 _1007_
*1111 _1008_
*1112 _1009_
*1113 _1010_
*1114 _1011_
*1115 _1012_
*1116 _1013_
*1117 _1014_
*1118 _1015_
*1119 _1016_
*1120 _1017_
*1121 _1018_
*1122 _1019_
*1123 _1020_
*1124 _1021_
*1125 _1022_
*1126 _1023_
*1127 _1024_
*1128 _1025_
*1129 _1026_
*1130 _1027_
*1131 _1028_
*1132 _1029_
*1133 _1030_
*1134 _1031_
*1135 _1032_
*1136 _1033_
*1137 _1034_
*1138 _1035_
*1139 _1036_
*1140 _1037_
*1141 _1038_
*1142 _1039_
*1143 _1040_
*1144 _1041_
*1145 _1042_
*1146 _1043_
*1147 _1044_
*1148 _1045_
*1149 _1046_
*1150 _1047_
*1151 _1048_
*1152 _1049_
*1153 _1050_
*1154 _1051_
*1155 _1052_
*1156 _1053_
*1157 _1054_
*1158 _1055_
*1159 _1056_
*1160 _1057_
*1161 _1058_
*1162 _1059_
*1163 _1060_
*1164 _1061_
*1165 _1062_
*1166 _1063_
*1167 _1064_
*1168 _1065_
*1169 _1066_
*1170 _1067_
*1171 _1068_
*1172 _1069_
*1173 _1070_
*1174 _1071_
*1175 _1072_
*1176 _1073_
*1177 _1074_
*1178 _1075_
*1179 _1076_
*1180 _1077_
*1181 _1078_
*1182 _1079_
*1183 _1080_
*1184 _1081_
*1185 _1082_
*1186 _1083_
*1187 _1084_
*1188 _1085_
*1189 _1086_
*1190 _1087_
*1191 _1088_
*1192 _1089_
*1193 _1090_
*1194 _1091_
*1195 _1092_
*1196 _1093_
*1197 _1094_
*1198 _1095_
*1199 _1096_
*1200 _1097_
*1201 _1098_
*1202 _1099_
*1203 _1100_
*1204 _1101_
*1205 _1102_
*1206 _1103_
*1207 _1104_
*1208 _1105_
*1209 _1106_
*1210 _1107_
*1211 _1108_
*1212 _1109_
*1213 _1110_
*1214 _1111_
*1215 _1112_
*1216 _1113_
*1217 _1114_
*1218 _1115_
*1219 _1116_
*1220 _1117_
*1221 _1118_
*1222 _1119_
*1223 _1120_
*1224 _1121_
*1225 _1122_
*1226 _1123_
*1227 _1124_
*1228 _1125_
*1229 _1126_
*1230 _1127_
*1231 _1128_
*1232 _1129_
*1233 _1130_
*1234 _1131_
*1235 _1132_
*1236 _1133_
*1237 _1134_
*1238 _1135_
*1239 _1136_
*1240 _1137_
*1241 _1138_
*1242 _1139_
*1243 _1140_
*1244 _1141_
*1245 _1142_
*1246 _1143_
*1247 _1144_
*1248 _1145_
*1249 _1146_
*1250 _1147_
*1251 _1148_
*1252 _1149_
*1253 _1150_
*1254 _1151_
*1255 _1152_
*1256 _1153_
*1257 _1154_
*1258 _1155_
*1259 _1156_
*1260 _1157_
*1261 _1158_
*1262 _1159_
*1263 _1160_
*1264 _1161_
*1265 _1162_
*1266 _1163_
*1267 _1164_
*1268 _1165_
*1269 _1166_
*1270 _1167_
*1271 _1168_
*1272 _1169_
*1273 _1170_
*1274 _1171_
*1275 _1172_
*1276 _1173_
*1277 _1174_
*1278 _1175_
*1279 _1176_
*1280 _1177_
*1281 _1178_
*1282 _1179_
*1283 _1180_
*1284 _1181_
*1285 _1182_
*1286 _1183_
*1287 _1184_
*1288 _1185_
*1289 _1186_
*1290 _1187_
*1291 _1188_
*1292 _1189_
*1293 _1190_
*1294 _1191_
*1295 _1192_
*1296 net113
*1297 clk
*1298 ena
*1299 rst_n
*1300 ui_in[0]
*1301 ui_in[1]
*1302 ui_in[2]
*1303 ui_in[3]
*1304 ui_in[4]
*1305 ui_in[5]
*1306 ui_in[6]
*1307 ui_in[7]
*1308 uio_in[0]
*1309 uio_in[1]
*1310 uio_in[2]
*1311 uio_in[3]
*1312 uio_in[4]
*1313 uio_in[5]
*1314 uio_in[6]
*1315 uio_in[7]
*1316 uio_oe[0]
*1317 uio_oe[1]
*1318 uio_oe[2]
*1319 uio_oe[3]
*1320 uio_oe[4]
*1321 uio_oe[5]
*1322 uio_oe[6]
*1323 uio_oe[7]
*1324 uio_out[0]
*1325 uio_out[1]
*1326 uio_out[2]
*1327 uio_out[3]
*1328 uio_out[4]
*1329 uio_out[5]
*1330 uio_out[6]
*1331 uio_out[7]
*1332 uo_out[0]
*1333 uo_out[1]
*1334 uo_out[2]
*1335 uo_out[3]
*1336 uo_out[4]
*1337 uo_out[5]
*1338 uo_out[6]
*1339 uo_out[7]
*1342 net1
*1343 net2
*1344 net3
*1345 net4
*1346 net5
*1347 net6
*1348 net7
*1349 net8
*1350 net9
*1351 net10
*1352 net11
*1353 net12
*1354 net13
*1355 net14
*1356 net15
*1357 net16
*1358 net17
*1359 net18
*1360 net19
*1361 net20
*1362 net21
*1363 net22
*1364 net23
*1365 net24
*1366 net25
*1367 net26
*1368 net27
*1369 net28
*1370 net29
*1371 net30
*1372 net31
*1373 net32
*1374 net33
*1375 net34
*1376 net35
*1377 net36
*1378 net37
*1379 net38
*1380 net39
*1381 net40
*1382 net41
*1383 net42
*1384 net43
*1385 net44
*1386 net45
*1387 net46
*1388 net47
*1389 net48
*1390 net49
*1391 net50
*1392 net51
*1393 net52
*1394 net53
*1395 net54
*1396 net55
*1397 net56
*1398 net57
*1399 net58
*1400 net59
*1401 net60
*1402 net61
*1403 net62
*1404 net63
*1405 net64
*1406 net65
*1407 net66
*1408 net67
*1409 net68
*1410 net69
*1411 net70
*1412 net71
*1413 net72
*1414 net73
*1415 net74
*1416 net75
*1417 net76
*1418 net77
*1419 net78
*1420 net79
*1421 net80
*1422 net81
*1423 net82
*1424 net83
*1425 net84
*1426 net85
*1427 net86
*1428 net87
*1429 net88
*1430 net89
*1431 net90
*1432 net91
*1433 net92
*1434 net93
*1435 net94
*1436 net95
*1437 net96
*1438 net97
*1439 net98
*1440 net99
*1441 net100
*1442 net101
*1443 net102
*1444 net103
*1445 net104
*1446 net105
*1447 net106
*1448 net107
*1449 net108
*1450 net109
*1451 net110
*1452 net111
*1453 net112
*1454 clknet_4_0_0_clk
*1455 clknet_4_1_0_clk
*1456 clknet_4_2_0_clk
*1457 clknet_4_3_0_clk
*1458 clknet_4_4_0_clk
*1459 clknet_4_5_0_clk
*1460 clknet_4_6_0_clk
*1461 clknet_4_7_0_clk
*1462 clknet_4_8_0_clk
*1463 clknet_4_9_0_clk
*1464 clknet_4_10_0_clk
*1465 clknet_4_11_0_clk
*1466 clknet_4_12_0_clk
*1467 clknet_4_13_0_clk
*1468 clknet_4_14_0_clk
*1469 clknet_4_15_0_clk
*1470 DJ8\.REGS\.regs\[0\]\[0\]\$_DFFE_PN0P_
*1471 DJ8\.REGS\.regs\[0\]\[1\]\$_DFFE_PN0P_
*1472 DJ8\.REGS\.regs\[0\]\[2\]\$_DFFE_PN0P_
*1473 DJ8\.REGS\.regs\[0\]\[3\]\$_DFFE_PN0P_
*1474 DJ8\.REGS\.regs\[0\]\[4\]\$_DFFE_PN0P_
*1475 DJ8\.REGS\.regs\[0\]\[5\]\$_DFFE_PN0P_
*1476 DJ8\.REGS\.regs\[0\]\[6\]\$_DFFE_PN0P_
*1477 DJ8\.REGS\.regs\[0\]\[7\]\$_DFFE_PN1P_
*1478 DJ8\.REGS\.regs\[1\]\[0\]\$_DFFE_PN0P_
*1479 DJ8\.REGS\.regs\[1\]\[1\]\$_DFFE_PN0P_
*1480 DJ8\.REGS\.regs\[1\]\[2\]\$_DFFE_PN0P_
*1481 DJ8\.REGS\.regs\[1\]\[3\]\$_DFFE_PN0P_
*1482 DJ8\.REGS\.regs\[1\]\[4\]\$_DFFE_PN0P_
*1483 DJ8\.REGS\.regs\[1\]\[5\]\$_DFFE_PN0P_
*1484 DJ8\.REGS\.regs\[1\]\[6\]\$_DFFE_PN0P_
*1485 DJ8\.REGS\.regs\[1\]\[7\]\$_DFFE_PN1P_
*1486 DJ8\.REGS\.regs\[2\]\[0\]\$_DFFE_PN0P_
*1487 DJ8\.REGS\.regs\[2\]\[1\]\$_DFFE_PN0P_
*1488 DJ8\.REGS\.regs\[2\]\[2\]\$_DFFE_PN0P_
*1489 DJ8\.REGS\.regs\[2\]\[3\]\$_DFFE_PN0P_
*1490 DJ8\.REGS\.regs\[2\]\[4\]\$_DFFE_PN0P_
*1491 DJ8\.REGS\.regs\[2\]\[5\]\$_DFFE_PN0P_
*1492 DJ8\.REGS\.regs\[2\]\[6\]\$_DFFE_PN0P_
*1493 DJ8\.REGS\.regs\[2\]\[7\]\$_DFFE_PN1P_
*1494 DJ8\.REGS\.regs\[3\]\[0\]\$_DFFE_PN0P_
*1495 DJ8\.REGS\.regs\[3\]\[1\]\$_DFFE_PN0P_
*1496 DJ8\.REGS\.regs\[3\]\[2\]\$_DFFE_PN0P_
*1497 DJ8\.REGS\.regs\[3\]\[3\]\$_DFFE_PN0P_
*1498 DJ8\.REGS\.regs\[3\]\[4\]\$_DFFE_PN0P_
*1499 DJ8\.REGS\.regs\[3\]\[5\]\$_DFFE_PN0P_
*1500 DJ8\.REGS\.regs\[3\]\[6\]\$_DFFE_PN0P_
*1501 DJ8\.REGS\.regs\[3\]\[7\]\$_DFFE_PN1P_
*1502 DJ8\.REGS\.regs\[4\]\[0\]\$_DFFE_PN0P_
*1503 DJ8\.REGS\.regs\[4\]\[1\]\$_DFFE_PN0P_
*1504 DJ8\.REGS\.regs\[4\]\[2\]\$_DFFE_PN0P_
*1505 DJ8\.REGS\.regs\[4\]\[3\]\$_DFFE_PN0P_
*1506 DJ8\.REGS\.regs\[4\]\[4\]\$_DFFE_PN0P_
*1507 DJ8\.REGS\.regs\[4\]\[5\]\$_DFFE_PN0P_
*1508 DJ8\.REGS\.regs\[4\]\[6\]\$_DFFE_PN0P_
*1509 DJ8\.REGS\.regs\[4\]\[7\]\$_DFFE_PN1P_
*1510 DJ8\.REGS\.regs\[5\]\[0\]\$_DFFE_PN0P_
*1511 DJ8\.REGS\.regs\[5\]\[1\]\$_DFFE_PN0P_
*1512 DJ8\.REGS\.regs\[5\]\[2\]\$_DFFE_PN0P_
*1513 DJ8\.REGS\.regs\[5\]\[3\]\$_DFFE_PN0P_
*1514 DJ8\.REGS\.regs\[5\]\[4\]\$_DFFE_PN0P_
*1515 DJ8\.REGS\.regs\[5\]\[5\]\$_DFFE_PN0P_
*1516 DJ8\.REGS\.regs\[5\]\[6\]\$_DFFE_PN0P_
*1517 DJ8\.REGS\.regs\[5\]\[7\]\$_DFFE_PN1P_
*1518 DJ8\.REGS\.regs\[6\]\[0\]\$_DFFE_PN0P_
*1519 DJ8\.REGS\.regs\[6\]\[1\]\$_DFFE_PN0P_
*1520 DJ8\.REGS\.regs\[6\]\[2\]\$_DFFE_PN0P_
*1521 DJ8\.REGS\.regs\[6\]\[3\]\$_DFFE_PN0P_
*1522 DJ8\.REGS\.regs\[6\]\[4\]\$_DFFE_PN0P_
*1523 DJ8\.REGS\.regs\[6\]\[5\]\$_DFFE_PN0P_
*1524 DJ8\.REGS\.regs\[6\]\[6\]\$_DFFE_PN0P_
*1525 DJ8\.REGS\.regs\[6\]\[7\]\$_DFFE_PN1P_
*1526 DJ8\.REGS\.regs\[7\]\[0\]\$_DFFE_PN0P_
*1527 DJ8\.REGS\.regs\[7\]\[1\]\$_DFFE_PN0P_
*1528 DJ8\.REGS\.regs\[7\]\[2\]\$_DFFE_PN0P_
*1529 DJ8\.REGS\.regs\[7\]\[3\]\$_DFFE_PN0P_
*1530 DJ8\.REGS\.regs\[7\]\[4\]\$_DFFE_PN0P_
*1531 DJ8\.REGS\.regs\[7\]\[5\]\$_DFFE_PN0P_
*1532 DJ8\.REGS\.regs\[7\]\[6\]\$_DFFE_PN0P_
*1533 DJ8\.REGS\.regs\[7\]\[7\]\$_DFFE_PN1P_
*1534 DJ8\.flag_C\$_DFFE_PN0P_
*1535 DJ8\.flag_Z\$_DFFE_PN0P_
*1536 DJ8\.ir\[0\]\$_DFFE_PN0P_
*1537 DJ8\.ir\[10\]\$_DFFE_PN0P_
*1538 DJ8\.ir\[11\]\$_DFFE_PN0P_
*1539 DJ8\.ir\[12\]\$_DFFE_PN0P_
*1540 DJ8\.ir\[13\]\$_DFFE_PN0P_
*1541 DJ8\.ir\[14\]\$_DFFE_PN0P_
*1542 DJ8\.ir\[15\]\$_DFFE_PN0P_
*1543 DJ8\.ir\[1\]\$_DFFE_PN0P_
*1544 DJ8\.ir\[2\]\$_DFFE_PN0P_
*1545 DJ8\.ir\[3\]\$_DFFE_PN0P_
*1546 DJ8\.ir\[4\]\$_DFFE_PN0P_
*1547 DJ8\.ir\[5\]\$_DFFE_PN0P_
*1548 DJ8\.ir\[6\]\$_DFFE_PN0P_
*1549 DJ8\.ir\[7\]\$_DFFE_PN0P_
*1550 DJ8\.ir\[8\]\$_DFFE_PN0P_
*1551 DJ8\.ir\[9\]\$_DFFE_PN0P_
*1552 DJ8\.pc\[0\]\$_DFFE_PN0P_
*1553 DJ8\.pc\[10\]\$_DFFE_PN0P_
*1554 DJ8\.pc\[11\]\$_DFFE_PN0P_
*1555 DJ8\.pc\[12\]\$_DFFE_PN0P_
*1556 DJ8\.pc\[13\]\$_DFFE_PN1P_
*1557 DJ8\.pc\[14\]\$_DFFE_PN0P_
*1558 DJ8\.pc\[1\]\$_DFFE_PN0P_
*1559 DJ8\.pc\[2\]\$_DFFE_PN0P_
*1560 DJ8\.pc\[3\]\$_DFFE_PN0P_
*1561 DJ8\.pc\[4\]\$_DFFE_PN0P_
*1562 DJ8\.pc\[5\]\$_DFFE_PN0P_
*1563 DJ8\.pc\[6\]\$_DFFE_PN0P_
*1564 DJ8\.pc\[7\]\$_DFFE_PN0P_
*1565 DJ8\.pc\[8\]\$_DFFE_PN0P_
*1566 DJ8\.pc\[9\]\$_DFFE_PN0P_
*1567 DJ8\.state\[0\]\$_DFF_PN1_
*1568 DJ8\.state\[1\]\$_DFF_PN0_
*1569 DJ8\.state\[2\]\$_DFF_PN0_
*1570 DJ8\.state\[3\]\$_DFF_PN0_
*1571 DJ8\.we\$_DFFE_NN1P_
*1572 _1194_
*1573 _1195_
*1574 _1196_
*1575 _1197_
*1576 _1198_
*1577 _1199_
*1578 clkbuf_0_clk
*1579 _1201_
*1580 _1202_
*1581 _1203_
*1582 _1204_
*1583 _1205_
*1584 _1206_
*1585 _1207_
*1586 _1208_
*1587 _1209_
*1588 _1210_
*1589 _1211_
*1590 _1212_
*1591 _1213_
*1592 _1214_
*1593 _1215_
*1594 _1216_
*1595 _1217_
*1596 _1218_
*1597 _1219_
*1598 _1220_
*1599 _1221_
*1600 _1222_
*1601 _1223_
*1602 _1224_
*1603 _1225_
*1604 _1226_
*1605 _1227_
*1606 _1228_
*1607 _1229_
*1608 _1230_
*1609 _1231_
*1610 _1232_
*1611 _1233_
*1612 _1234_
*1613 _1235_
*1614 _1236_
*1615 _1237_
*1616 _1238_
*1617 _1239_
*1618 _1240_
*1619 _1241_
*1620 _1242_
*1621 _1243_
*1622 _1244_
*1623 _1245_
*1624 _1246_
*1625 _1247_
*1626 _1248_
*1627 _1249_
*1628 _1250_
*1629 _1251_
*1630 _1252_
*1631 _1253_
*1632 _1254_
*1633 _1255_
*1634 _1256_
*1635 _1257_
*1636 _1258_
*1637 _1259_
*1638 _1260_
*1639 _1261_
*1640 _1262_
*1641 _1263_
*1642 _1264_
*1643 _1265_
*1644 _1266_
*1645 _1267_
*1646 _1268_
*1647 _1269_
*1648 _1270_
*1649 _1271_
*1650 _1272_
*1651 _1273_
*1652 _1274_
*1653 _1275_
*1654 _1276_
*1655 _1277_
*1656 _1278_
*1657 _1279_
*1658 _1280_
*1659 _1281_
*1660 _1282_
*1661 _1283_
*1662 _1284_
*1663 _1285_
*1664 _1286_
*1665 _1287_
*1666 _1288_
*1667 _1289_
*1668 _1290_
*1669 _1291_
*1670 _1292_
*1671 _1293_
*1672 _1294_
*1673 _1295_
*1674 _1296_
*1675 _1297_
*1676 _1298_
*1677 _1299_
*1678 _1300_
*1679 _1301_
*1680 _1302_
*1681 _1303_
*1682 _1304_
*1683 _1305_
*1684 _1306_
*1685 _1307_
*1686 _1308_
*1687 _1309_
*1688 _1310_
*1689 _1311_
*1690 _1312_
*1691 _1313_
*1692 _1314_
*1693 _1315_
*1694 _1316_
*1695 _1317_
*1696 _1318_
*1697 _1319_
*1698 _1320_
*1699 _1321_
*1700 _1322_
*1701 _1323_
*1702 _1324_
*1703 _1325_
*1704 _1326_
*1705 _1327_
*1706 _1328_
*1707 _1329_
*1708 _1330_
*1709 _1331_
*1710 _1332_
*1711 _1333_
*1712 _1334_
*1713 _1335_
*1714 _1336_
*1715 _1337_
*1716 _1338_
*1717 _1339_
*1718 _1340_
*1719 _1341_
*1720 _1342_
*1721 _1343_
*1722 _1344_
*1723 _1345_
*1724 _1346_
*1725 _1347_
*1726 _1348_
*1727 _1349_
*1728 _1350_
*1729 _1351_
*1730 _1352_
*1731 _1353_
*1732 _1354_
*1733 _1355_
*1734 _1356_
*1735 _1357_
*1736 _1358_
*1737 _1359_
*1738 _1360_
*1739 _1361_
*1740 _1362_
*1741 _1363_
*1742 _1364_
*1743 _1365_
*1744 _1366_
*1745 _1367_
*1746 _1368_
*1747 _1369_
*1748 _1370_
*1749 _1371_
*1750 _1372_
*1751 _1373_
*1752 _1374_
*1753 _1375_
*1754 _1376_
*1755 _1377_
*1756 _1378_
*1757 _1379_
*1758 _1380_
*1759 _1381_
*1760 _1382_
*1761 _1383_
*1762 _1384_
*1763 _1385_
*1764 _1386_
*1765 _1387_
*1766 _1388_
*1767 _1389_
*1768 _1390_
*1769 _1391_
*1770 _1392_
*1771 _1393_
*1772 _1394_
*1773 _1395_
*1774 _1396_
*1775 _1397_
*1776 _1398_
*1777 _1399_
*1778 _1400_
*1779 _1401_
*1780 _1402_
*1781 _1403_
*1782 _1404_
*1783 _1405_
*1784 _1406_
*1785 _1407_
*1786 _1408_
*1787 _1409_
*1788 _1410_
*1789 _1411_
*1790 _1412_
*1791 _1413_
*1792 _1414_
*1793 _1415_
*1794 _1416_
*1795 _1417_
*1796 _1418_
*1797 _1419_
*1798 _1420_
*1799 _1421_
*1800 _1422_
*1801 _1423_
*1802 _1424_
*1803 _1425_
*1804 _1426_
*1805 _1427_
*1806 _1428_
*1807 _1429_
*1808 _1430_
*1809 _1431_
*1810 _1432_
*1811 _1433_
*1812 _1434_
*1813 _1435_
*1814 _1436_
*1815 _1437_
*1816 _1438_
*1817 _1439_
*1818 _1440_
*1819 _1441_
*1820 _1442_
*1821 _1443_
*1822 _1444_
*1823 _1445_
*1824 _1446_
*1825 _1447_
*1826 _1448_
*1827 _1449_
*1828 _1450_
*1829 _1451_
*1830 _1452_
*1831 _1453_
*1832 _1454_
*1833 _1455_
*1834 _1456_
*1835 _1457_
*1836 _1458_
*1837 _1459_
*1838 _1460_
*1839 _1461_
*1840 _1462_
*1841 _1463_
*1842 _1464_
*1843 _1465_
*1844 _1466_
*1845 _1467_
*1846 _1468_
*1847 _1469_
*1848 _1470_
*1849 _1471_
*1850 _1472_
*1851 _1473_
*1852 _1474_
*1853 _1475_
*1854 _1476_
*1855 _1477_
*1856 _1478_
*1857 _1479_
*1858 _1480_
*1859 _1481_
*1860 _1482_
*1861 _1483_
*1862 _1484_
*1863 _1485_
*1864 _1486_
*1865 _1487_
*1866 _1488_
*1867 _1489_
*1868 _1490_
*1869 _1491_
*1870 _1492_
*1871 _1493_
*1872 _1494_
*1873 _1495_
*1874 _1496_
*1875 _1497_
*1876 _1498_
*1877 _1499_
*1878 _1500_
*1879 _1501_
*1880 _1502_
*1881 _1503_
*1882 _1504_
*1883 _1505_
*1884 _1506_
*1885 _1507_
*1886 _1508_
*1887 _1509_
*1888 _1510_
*1889 _1511_
*1890 _1512_
*1891 _1513_
*1892 _1514_
*1893 _1515_
*1894 _1516_
*1895 _1517_
*1896 _1518_
*1897 _1519_
*1898 _1520_
*1899 _1521_
*1900 _1522_
*1901 _1523_
*1902 _1524_
*1903 _1525_
*1904 _1526_
*1905 _1527_
*1906 _1528_
*1907 _1529_
*1908 _1530_
*1909 _1531_
*1910 _1532_
*1911 _1533_
*1912 _1534_
*1913 _1535_
*1914 _1536_
*1915 _1537_
*1916 _1538_
*1917 _1539_
*1918 _1540_
*1919 _1541_
*1920 _1542_
*1921 _1543_
*1922 _1544_
*1923 _1545_
*1924 _1546_
*1925 _1547_
*1926 _1548_
*1927 _1549_
*1928 _1550_
*1929 _1551_
*1930 _1552_
*1931 _1553_
*1932 _1554_
*1933 _1555_
*1934 _1556_
*1935 _1557_
*1936 _1558_
*1937 _1559_
*1938 _1560_
*1939 _1561_
*1940 _1562_
*1941 _1563_
*1942 _1564_
*1943 _1565_
*1944 _1566_
*1945 _1567_
*1946 _1568_
*1947 _1569_
*1948 _1570_
*1949 _1571_
*1950 _1572_
*1951 _1573_
*1952 _1574_
*1953 _1575_
*1954 _1576_
*1955 _1577_
*1956 _1578_
*1957 _1579_
*1958 _1580_
*1959 _1581_
*1960 _1582_
*1961 _1583_
*1962 _1584_
*1963 _1585_
*1964 _1586_
*1965 _1587_
*1966 _1588_
*1967 _1589_
*1968 _1590_
*1969 _1591_
*1970 _1592_
*1971 _1593_
*1972 _1594_
*1973 _1595_
*1974 _1596_
*1975 _1597_
*1976 _1598_
*1977 _1599_
*1978 _1600_
*1979 _1601_
*1980 _1602_
*1981 _1603_
*1982 _1604_
*1983 _1605_
*1984 _1606_
*1985 _1607_
*1986 _1608_
*1987 _1609_
*1988 _1610_
*1989 _1611_
*1990 _1612_
*1991 _1613_
*1992 _1614_
*1993 _1615_
*1994 _1616_
*1995 _1617_
*1996 _1618_
*1997 _1619_
*1998 _1620_
*1999 _1621_
*2000 _1622_
*2001 _1623_
*2002 _1624_
*2003 _1625_
*2004 _1626_
*2005 _1627_
*2006 _1628_
*2007 _1629_
*2008 _1630_
*2009 _1631_
*2010 _1632_
*2011 _1633_
*2012 _1634_
*2013 _1635_
*2014 _1636_
*2015 _1637_
*2016 _1638_
*2017 _1639_
*2018 _1640_
*2019 _1641_
*2020 _1642_
*2021 _1643_
*2022 _1644_
*2023 _1645_
*2024 _1646_
*2025 _1647_
*2026 _1648_
*2027 _1649_
*2028 _1650_
*2029 _1651_
*2030 _1652_
*2031 _1653_
*2032 _1654_
*2033 _1655_
*2034 _1656_
*2035 _1657_
*2036 _1658_
*2037 _1659_
*2038 _1660_
*2039 _1661_
*2040 _1662_
*2041 _1663_
*2042 _1664_
*2043 _1665_
*2044 _1666_
*2045 _1667_
*2046 _1668_
*2047 _1669_
*2048 _1670_
*2049 _1671_
*2050 _1672_
*2051 _1673_
*2052 _1674_
*2053 _1675_
*2054 _1676_
*2055 _1677_
*2056 _1678_
*2057 _1679_
*2058 _1680_
*2059 _1681_
*2060 _1682_
*2061 _1683_
*2062 _1684_