*SPEF "ieee 1481-1999"
*DESIGN "tt_um_pulse_generator"
*DATE "06:02:58 Monday November 04, 2024"
*VENDOR "The OpenROAD Project"
*PROGRAM "OpenROAD"
*VERSION "v2.0-16649-g40811f37f"
*DESIGN_FLOW "NAME_SCOPE LOCAL" "PIN_CAP NONE"
*DIVIDER /
*DELIMITER :
*BUS_DELIMITER []
*T_UNIT 1 NS
*C_UNIT 1 PF
*R_UNIT 1 OHM
*L_UNIT 1 HENRY

*NAME_MAP
*1 _0000_
*2 _0001_
*3 _0002_
*4 _0003_
*5 _0004_
*6 _0005_
*7 _0006_
*8 _0007_
*9 _0008_
*10 _0009_
*11 _0010_
*12 _0011_
*13 _0012_
*14 _0013_
*15 _0014_
*16 _0015_
*17 _0016_
*18 _0017_
*19 _0018_
*20 _0019_
*21 _0020_
*22 _0021_
*23 _0022_
*24 _0023_
*25 _0024_
*26 _0025_
*27 _0026_
*28 _0027_
*29 _0028_
*30 _0029_
*31 _0030_
*32 _0031_
*33 _0032_
*34 _0033_
*35 _0034_
*36 _0035_
*37 _0036_
*38 _0037_
*39 _0038_
*40 _0039_
*41 _0040_
*42 _0041_
*43 _0042_
*44 _0043_
*45 _0044_
*46 _0045_
*47 _0046_
*48 _0047_
*49 _0048_
*50 _0049_
*51 _0050_
*52 _0051_
*53 _0052_
*54 _0053_
*55 _0054_
*56 _0055_
*57 _0056_
*58 _0057_
*59 _0058_
*60 _0059_
*61 _0060_
*62 _0061_
*63 _0062_
*64 _0063_
*65 _0064_
*66 _0065_
*67 _0066_
*68 _0067_
*69 _0068_
*70 _0069_
*71 _0070_
*72 _0071_
*73 _0072_
*74 _0073_
*75 _0074_
*76 _0075_
*77 _0076_
*78 _0077_
*79 _0078_
*80 _0079_
*81 _0080_
*82 _0081_
*83 _0082_
*84 _0083_
*85 _0084_
*86 _0085_
*87 _0086_
*88 _0087_
*89 _0088_
*90 _0089_
*91 _0090_
*92 _0091_
*93 _0092_
*94 _0093_
*95 _0094_
*96 _0095_
*97 _0096_
*98 _0097_
*99 _0098_
*100 _0099_
*101 _0100_
*102 _0101_
*103 _0102_
*104 _0103_
*105 _0104_
*106 _0105_
*107 _0106_
*108 _0107_
*109 _0108_
*110 _0109_
*111 _0110_
*112 _0111_
*113 _0112_
*114 _0113_
*115 _0114_
*116 _0115_
*117 _0116_
*118 _0117_
*119 _0118_
*120 _0119_
*121 _0120_
*122 _0121_
*123 _0122_
*124 _0123_
*125 _0124_
*126 _0125_
*127 _0126_
*128 _0127_
*129 _0128_
*130 _0129_
*131 _0130_
*132 _0131_
*133 _0132_
*134 _0133_
*135 _0134_
*136 _0135_
*137 _0136_
*138 _0137_
*139 _0138_
*140 _0139_
*141 _0140_
*142 _0141_
*143 _0142_
*144 _0143_
*145 _0144_
*146 _0145_
*147 _0146_
*148 _0147_
*149 _0148_
*150 _0149_
*151 _0150_
*152 _0151_
*153 _0152_
*154 _0153_
*155 _0154_
*156 _0155_
*157 _0156_
*158 _0157_
*159 _0158_
*160 _0159_
*161 _0160_
*162 _0161_
*163 _0162_
*164 _0163_
*165 _0164_
*166 _0165_
*167 _0166_
*168 _0167_
*169 _0168_
*170 _0169_
*171 _0170_
*172 _0171_
*173 _0172_
*174 _0173_
*175 _0174_
*176 _0175_
*177 _0176_
*178 _0177_
*179 _0178_
*180 _0179_
*181 _0180_
*182 _0181_
*183 _0182_
*184 _0183_
*185 _0184_
*186 _0185_
*187 _0186_
*188 _0187_
*189 _0188_
*190 _0189_
*191 _0190_
*192 _0191_
*193 _0192_
*194 _0193_
*195 _0194_
*196 _0195_
*197 _0196_
*198 _0197_
*199 _0198_
*200 _0199_
*201 _0200_
*202 _0201_
*203 _0202_
*204 _0203_
*205 _0204_
*206 _0205_
*207 _0206_
*208 _0207_
*209 _0208_
*210 _0209_
*211 _0210_
*212 _0211_
*213 _0212_
*214 _0213_
*215 _0214_
*216 _0215_
*217 _0216_
*218 _0217_
*219 _0218_
*220 _0219_
*221 _0220_
*222 _0221_
*223 _0222_
*224 _0223_
*225 _0224_
*226 _0225_
*227 _0226_
*228 _0227_
*229 _0228_
*230 _0229_
*231 _0230_
*232 _0231_
*233 _0232_
*234 _0233_
*235 _0234_
*236 _0235_
*237 _0236_
*238 _0237_
*239 _0238_
*240 _0239_
*241 _0240_
*242 _0241_
*243 _0242_
*244 _0243_
*245 _0244_
*246 _0245_
*247 _0246_
*248 _0247_
*249 _0248_
*250 _0249_
*251 _0250_
*252 _0251_
*253 _0252_
*254 _0253_
*255 _0254_
*256 _0255_
*257 _0256_
*258 _0257_
*259 _0258_
*260 _0259_
*261 _0260_
*262 _0261_
*263 _0262_
*264 _0263_
*265 _0264_
*266 _0265_
*267 _0266_
*268 _0267_
*269 _0268_
*270 _0269_
*271 _0270_
*272 _0271_
*273 _0272_
*274 _0273_
*275 _0274_
*276 _0275_
*277 _0276_
*278 _0277_
*279 _0278_
*280 _0279_
*281 _0280_
*282 _0281_
*283 _0282_
*284 _0283_
*285 _0284_
*286 _0285_
*287 _0286_
*288 _0287_
*289 _0288_
*290 _0289_
*291 _0290_
*292 _0291_
*293 _0292_
*294 _0293_
*295 _0294_
*296 _0295_
*297 _0296_
*298 _0297_
*299 _0298_
*300 _0299_
*301 _0300_
*302 _0301_
*303 _0302_
*304 _0303_
*305 _0304_
*306 _0305_
*307 _0306_
*308 _0307_
*309 _0308_
*310 _0309_
*311 _0310_
*312 _0311_
*313 _0312_
*314 _0313_
*315 _0314_
*316 _0315_
*317 _0316_
*318 _0317_
*319 _0318_
*320 _0319_
*321 _0320_
*322 _0321_
*323 _0322_
*324 _0323_
*325 _0324_
*326 _0325_
*327 _0326_
*328 _0327_
*329 _0328_
*330 _0329_
*331 _0330_
*332 _0331_
*333 _0332_
*334 _0333_
*335 _0334_
*336 _0335_
*337 _0336_
*338 _0337_
*339 _0338_
*340 _0339_
*341 _0340_
*342 _0341_
*343 _0342_
*344 _0343_
*345 _0344_
*346 _0345_
*347 _0346_
*348 _0347_
*349 _0348_
*350 _0349_
*351 _0350_
*352 _0351_
*353 _0352_
*354 _0353_
*355 _0354_
*356 _0355_
*357 _0356_
*358 _0357_
*359 _0358_
*360 _0359_
*361 _0360_
*362 _0361_
*363 _0362_
*364 _0363_
*365 _0364_
*366 _0365_
*367 _0366_
*368 _0367_
*369 _0368_
*370 _0369_
*371 _0370_
*372 _0371_
*373 _0372_
*374 _0373_
*375 _0374_
*376 _0375_
*377 _0376_
*378 _0377_
*379 _0378_
*380 _0379_
*381 _0380_
*382 _0381_
*383 _0382_
*384 _0383_
*385 _0384_
*386 _0385_
*387 _0386_
*388 _0387_
*389 _0388_
*390 _0389_
*391 _0390_
*392 _0391_
*393 _0392_
*394 _0393_
*395 _0394_
*396 _0395_
*397 _0396_
*398 _0397_
*399 _0398_
*400 _0399_
*401 _0400_
*402 _0401_
*403 _0402_
*404 _0403_
*405 _0404_
*406 _0405_
*407 _0406_
*408 _0407_
*409 _0408_
*410 _0409_
*411 _0410_
*412 _0411_
*413 _0412_
*414 _0413_
*415 _0414_
*416 _0415_
*417 _0416_
*418 _0417_
*419 _0418_
*420 _0419_
*421 _0420_
*422 _0421_
*423 _0422_
*424 _0423_
*425 _0424_
*426 _0425_
*427 _0426_
*428 _0427_
*429 _0428_
*430 _0429_
*431 _0430_
*432 _0431_
*433 _0432_
*434 _0433_
*435 _0434_
*436 _0435_
*437 _0436_
*438 _0437_
*439 _0438_
*440 _0439_
*441 _0440_
*442 _0441_
*443 _0442_
*444 _0443_
*445 _0444_
*446 _0445_
*447 _0446_
*448 _0447_
*449 _0448_
*450 _0449_
*451 _0450_
*452 _0451_
*453 _0452_
*454 _0453_
*455 _0454_
*456 _0455_
*457 _0456_
*458 _0457_
*459 _0458_
*460 _0459_
*461 _0460_
*462 _0461_
*463 _0462_
*464 _0463_
*465 _0464_
*466 _0465_
*467 _0466_
*468 _0467_
*469 _0468_
*470 _0469_
*471 _0470_
*472 _0471_
*473 _0472_
*474 _0473_
*475 _0474_
*476 _0475_
*477 _0476_
*478 _0477_
*479 _0478_
*480 _0479_
*481 _0480_
*482 _0481_
*483 _0482_
*484 _0483_
*485 _0484_
*486 _0485_
*487 _0486_
*488 _0487_
*489 _0488_
*490 _0489_
*491 _0490_
*492 _0491_
*493 _0492_
*494 _0493_
*495 _0494_
*496 _0495_
*497 _0496_
*498 _0497_
*499 _0498_
*500 _0499_
*501 _0500_
*502 _0501_
*503 _0502_
*504 _0503_
*505 _0504_
*506 _0505_
*507 _0506_
*508 _0507_
*509 _0508_
*510 _0509_
*511 _0510_
*512 _0511_
*513 _0512_
*514 _0513_
*515 _0514_
*516 _0515_
*517 _0516_
*518 _0517_
*519 _0518_
*520 _0519_
*521 _0520_
*522 _0521_
*523 _0522_
*524 _0523_
*525 _0524_
*526 _0525_
*527 _0526_
*528 _0527_
*529 _0528_
*530 _0529_
*531 _0530_
*532 _0531_
*533 _0532_
*534 _0533_
*535 _0534_
*536 _0535_
*537 _0536_
*538 _0537_
*539 _0538_
*540 _0539_
*541 _0540_
*542 _0541_
*543 _0542_
*544 _0543_
*545 _0544_
*546 _0545_
*547 _0546_
*548 _0547_
*549 _0548_
*550 _0549_
*551 _0550_
*552 _0551_
*553 _0552_
*554 _0553_
*555 _0554_
*556 _0555_
*557 _0556_
*558 _0557_
*559 _0558_
*560 _0559_
*561 _0560_
*562 _0561_
*563 _0562_
*564 _0563_
*565 _0564_
*566 _0565_
*567 _0566_
*568 _0567_
*569 _0568_
*570 _0569_
*571 _0570_
*572 _0571_
*573 _0572_
*574 _0573_
*575 _0574_
*576 _0575_
*577 _0576_
*578 _0577_
*579 _0578_
*580 _0579_
*581 _0580_
*582 _0581_
*583 _0582_
*584 _0583_
*585 _0584_
*586 _0585_
*587 _0586_
*588 _0587_
*589 _0588_
*590 _0589_
*591 _0590_
*592 _0591_
*593 _0592_
*594 _0593_
*595 _0594_
*596 _0595_
*597 _0596_
*598 _0597_
*599 _0598_
*600 _0599_
*601 _0600_
*602 _0601_
*603 _0602_
*604 _0603_
*605 _0604_
*606 _0605_
*607 _0606_
*608 _0607_
*609 _0608_
*610 _0609_
*611 _0610_
*612 _0611_
*613 _0612_
*614 _0613_
*615 _0614_
*616 _0615_
*617 _0616_
*618 _0617_
*619 _0618_
*620 _0619_
*621 _0620_
*622 _0621_
*623 _0622_
*624 _0623_
*625 _0624_
*626 _0625_
*627 _0626_
*628 _0627_
*629 _0628_
*630 _0629_
*631 _0630_
*632 _0631_
*633 _0632_
*634 _0633_
*635 _0634_
*636 _0635_
*637 _0636_
*638 _0637_
*639 _0638_
*640 _0639_
*641 _0640_
*642 _0641_
*643 _0642_
*644 _0643_
*645 _0644_
*646 _0645_
*647 clknet_0_clk
*648 clk
*649 ena
*650 pulse_gen_inst\.count_counter\[0\]
*651 pulse_gen_inst\.count_counter\[10\]
*652 pulse_gen_inst\.count_counter\[11\]
*653 pulse_gen_inst\.count_counter\[12\]
*654 pulse_gen_inst\.count_counter\[13\]
*655 pulse_gen_inst\.count_counter\[14\]
*656 pulse_gen_inst\.count_counter\[15\]
*657 pulse_gen_inst\.count_counter\[1\]
*658 pulse_gen_inst\.count_counter\[2\]
*659 pulse_gen_inst\.count_counter\[3\]
*660 pulse_gen_inst\.count_counter\[4\]
*661 pulse_gen_inst\.count_counter\[5\]
*662 pulse_gen_inst\.count_counter\[6\]
*663 pulse_gen_inst\.count_counter\[7\]
*664 pulse_gen_inst\.count_counter\[8\]
*665 pulse_gen_inst\.count_counter\[9\]
*666 pulse_gen_inst\.period_counter\[0\]
*667 pulse_gen_inst\.period_counter\[10\]
*668 pulse_gen_inst\.period_counter\[11\]
*669 pulse_gen_inst\.period_counter\[12\]
*670 pulse_gen_inst\.period_counter\[13\]
*671 pulse_gen_inst\.period_counter\[14\]
*672 pulse_gen_inst\.period_counter\[15\]
*673 pulse_gen_inst\.period_counter\[16\]
*674 pulse_gen_inst\.period_counter\[17\]
*675 pulse_gen_inst\.period_counter\[18\]
*676 pulse_gen_inst\.period_counter\[19\]
*677 pulse_gen_inst\.period_counter\[1\]
*678 pulse_gen_inst\.period_counter\[20\]
*679 pulse_gen_inst\.period_counter\[21\]
*680 pulse_gen_inst\.period_counter\[22\]
*681 pulse_gen_inst\.period_counter\[23\]
*682 pulse_gen_inst\.period_counter\[24\]
*683 pulse_gen_inst\.period_counter\[25\]
*684 pulse_gen_inst\.period_counter\[26\]
*685 pulse_gen_inst\.period_counter\[27\]
*686 pulse_gen_inst\.period_counter\[28\]
*687 pulse_gen_inst\.period_counter\[29\]
*688 pulse_gen_inst\.period_counter\[2\]
*689 pulse_gen_inst\.period_counter\[30\]
*690 pulse_gen_inst\.period_counter\[31\]
*691 pulse_gen_inst\.period_counter\[3\]
*692 pulse_gen_inst\.period_counter\[4\]
*693 pulse_gen_inst\.period_counter\[5\]
*694 pulse_gen_inst\.period_counter\[6\]
*695 pulse_gen_inst\.period_counter\[7\]
*696 pulse_gen_inst\.period_counter\[8\]
*697 pulse_gen_inst\.period_counter\[9\]
*698 pulse_gen_inst\.pulse_active
*699 pulse_gen_inst\.pulse_counter\[0\]
*700 pulse_gen_inst\.pulse_counter\[10\]
*701 pulse_gen_inst\.pulse_counter\[11\]
*702 pulse_gen_inst\.pulse_counter\[12\]
*703 pulse_gen_inst\.pulse_counter\[13\]
*704 pulse_gen_inst\.pulse_counter\[14\]
*705 pulse_gen_inst\.pulse_counter\[15\]
*706 pulse_gen_inst\.pulse_counter\[16\]
*707 pulse_gen_inst\.pulse_counter\[17\]
*708 pulse_gen_inst\.pulse_counter\[18\]
*709 pulse_gen_inst\.pulse_counter\[19\]
*710 pulse_gen_inst\.pulse_counter\[1\]
*711 pulse_gen_inst\.pulse_counter\[20\]
*712 pulse_gen_inst\.pulse_counter\[21\]
*713 pulse_gen_inst\.pulse_counter\[22\]
*714 pulse_gen_inst\.pulse_counter\[23\]
*715 pulse_gen_inst\.pulse_counter\[24\]
*716 pulse_gen_inst\.pulse_counter\[25\]
*717 pulse_gen_inst\.pulse_counter\[26\]
*718 pulse_gen_inst\.pulse_counter\[27\]
*719 pulse_gen_inst\.pulse_counter\[28\]
*720 pulse_gen_inst\.pulse_counter\[29\]
*721 pulse_gen_inst\.pulse_counter\[2\]
*722 pulse_gen_inst\.pulse_counter\[30\]
*723 pulse_gen_inst\.pulse_counter\[31\]
*724 pulse_gen_inst\.pulse_counter\[3\]
*725 pulse_gen_inst\.pulse_counter\[4\]
*726 pulse_gen_inst\.pulse_counter\[5\]
*727 pulse_gen_inst\.pulse_counter\[6\]
*728 pulse_gen_inst\.pulse_counter\[7\]
*729 pulse_gen_inst\.pulse_counter\[8\]
*730 pulse_gen_inst\.pulse_counter\[9\]
*731 pulse_gen_inst\.ttl_out
*732 reg_sequence_select\[0\]
*733 reg_sequence_select\[1\]
*734 reg_sequence_select\[2\]
*735 reg_sequence_select\[3\]
*736 rst_n
*737 ui_in[0]
*738 ui_in[1]
*739 ui_in[2]
*740 ui_in[3]
*741 ui_in[4]
*742 ui_in[5]
*743 ui_in[6]
*744 ui_in[7]
*745 uio_in[0]
*746 uio_in[1]
*747 uio_in[2]
*748 uio_in[3]
*749 uio_in[4]
*750 uio_in[5]
*751 uio_in[6]
*752 uio_in[7]
*753 uio_oe[0]
*754 uio_oe[1]
*755 uio_oe[2]
*756 uio_oe[3]
*757 uio_oe[4]
*758 uio_oe[5]
*759 uio_oe[6]
*760 uio_oe[7]
*761 uio_out[0]
*762 uio_out[1]
*763 uio_out[2]
*764 uio_out[3]
*765 uio_out[4]
*766 uio_out[5]
*767 uio_out[6]
*768 uio_out[7]
*769 uo_out[0]
*770 uo_out[1]
*771 uo_out[2]
*772 uo_out[3]
*773 uo_out[4]
*774 uo_out[5]
*775 uo_out[6]
*776 uo_out[7]
*779 net1
*780 net2
*781 net3
*782 net4
*783 net5
*784 net6
*785 net7
*786 net8
*787 net9
*788 net10
*789 net11
*790 net12
*791 net13
*792 net14
*793 net15
*794 net16
*795 net17
*796 net18
*797 net19
*798 net20
*799 net21
*800 net22
*801 net23
*802 net24
*803 net25
*804 net26
*805 net27
*806 net28
*807 net29
*808 net30
*809 net31
*810 net32
*811 net33
*812 net34
*813 net35
*814 net36
*815 net37
*816 net38
*817 net39
*818 net40
*819 net41
*820 net42
*821 net43
*822 net44
*823 net45
*824 net46
*825 net47
*826 net48
*827 net49
*828 net50
*829 net51
*830 net52
*831 net53
*832 net54
*833 net55
*834 net56
*835 net57
*836 net58
*837 net59
*838 net60
*839 net61
*840 net62
*841 net63
*842 net64
*843 net65
*844 net66
*845 net67
*846 net68
*847 net69
*848 net70
*849 net71
*850 net72
*851 net73
*852 net74
*853 net75
*854 clknet_4_0_0_clk
*855 clknet_4_1_0_clk
*856 clknet_4_2_0_clk
*857 clknet_4_3_0_clk
*858 clknet_4_4_0_clk
*859 clknet_4_5_0_clk
*860 clknet_4_6_0_clk
*861 clknet_4_7_0_clk
*862 clknet_4_8_0_clk
*863 clknet_4_9_0_clk
*864 clknet_4_10_0_clk
*865 clknet_4_11_0_clk
*866 clknet_4_12_0_clk
*867 clknet_4_13_0_clk
*868 clknet_4_14_0_clk
*869 clknet_4_15_0_clk
*870 _0647_
*871 _0648_
*872 _0649_
*873 _0650_
*874 _0651_
*875 _0652_
*876 _0653_
*877 _0654_
*878 _0655_
*879 _0656_
*880 _0657_
*881 _0658_
*882 _0659_
*883 _0660_
*884 _0661_
*885 _0662_
*886 _0663_
*887 _0664_
*888 _0665_
*889 _0666_
*890 _0667_
*891 _0668_
*892 _0669_
*893 _0670_
*894 _0671_
*895 _0672_
*896 _0673_
*897 _0674_
*898 _0675_
*899 _0676_
*900 _0677_
*901 _0678_
*902 _0679_
*903 _0680_
*904 _0681_
*905 _0682_
*906 _0683_
*907 _0684_
*908 _0685_
*909 _0686_
*910 _0687_
*911 _0688_
*912 _0689_
*913 _0690_
*914 _0691_
*915 _0692_
*916 _0693_
*917 _0694_
*918 _0695_
*919 _0696_
*920 _0697_
*921 _0698_
*922 _0699_
*923 _0700_
*924 _0701_
*925 _0702_
*926 _0703_
*927 _0704_
*928 _0705_
*929 _0706_
*930 _0707_
*931 _0708_
*932 _0709_
*933 _0710_
*934 _0711_
*935 _0712_
*936 _0713_
*937 _0714_
*938 _0715_
*939 _0716_
*940 _0717_
*941 _0718_
*942 _0719_
*943 _0720_
*944 _0721_
*945 _0722_
*946 _0723_
*947 _0724_
*948 _0725_
*949 _0726_
*950 _0727_
*951 _0728_
*952 _0729_
*953 _0730_
*954 _0731_
*955 _0732_
*956 _0733_
*957 _0734_
*958 _0735_
*959 _0736_
*960 _0737_
*961 _0738_
*962 _0739_
*963 _0740_
*964 _0741_
*965 _0742_
*966 _0743_
*967 _0744_
*968 _0745_
*969 _0746_
*970 _0747_
*971 _0748_
*972 _0749_
*973 _0750_
*974 _0751_
*975 _0752_
*976 _0753_
*977 _0754_
*978 _0755_
*979 _0756_
*980 _0757_
*981 _0758_
*982 _0759_
*983 _0760_
*984 _0761_
*985 _0762_
*986 _0763_
*987 _0764_
*988 _0765_
*989 _0766_
*990 _0767_
*991 _0768_
*992 _0769_
*993 _0770_
*994 _0771_
*995 _0772_
*996 _0773_
*997 _0774_
*998 _0775_
*999 _0776_
*1000 _0777_
*1001 _0778_
*1002 _0779_
*1003 _0780_
*1004 _0781_
*1005 _0782_
*1006 _0783_
*1007 _0784_
*1008 _0785_
*1009 _0786_
*1010 _0787_
*1011 _0788_
*1012 _0789_
*1013 _0790_
*1014 _0791_
*1015 _0792_
*1016 _0793_
*1017 _0794_
*1018 _0795_
*1019 _0796_
*1020 _0797_
*1021 _0798_
*1022 _0799_
*1023 _0800_
*1024 _0801_
*1025 _0802_
*1026 _0803_
*1027 _0804_
*1028 _0805_
*1029 _0806_
*1030 _0807_
*1031 _0808_
*1032 _0809_
*1033 _0810_
*1034 _0811_
*1035 _0812_
*1036 _0813_
*1037 _0814_
*1038 _0815_
*1039 _0816_
*1040 _0817_
*1041 _0818_
*1042 _0819_
*1043 _0820_
*1044 _0821_
*1045 _0822_
*1046 _0823_
*1047 _0824_
*1048 _0825_
*1049 _0826_
*1050 _0827_
*1051 _0828_
*1052 _0829_
*1053 _0830_
*1054 _0831_
*1055 _0832_
*1056 _0833_
*1057 _0834_
*1058 _0835_
*1059 _0836_
*1060 _0837_
*1061 _0838_
*1062 _0839_
*1063 _0840_
*1064 _0841_
*1065 _0842_
*1066 _0843_
*1067 _0844_
*1068 _0845_
*1069 _0846_
*1070 _0847_
*1071 _0848_
*1072 _0849_
*1073 _0850_
*1074 _0851_
*1075 _0852_
*1076 _0853_
*1077 _0854_
*1078 _0855_
*1079 _0856_
*1080 _0857_
*1081 _0858_
*1082 _0859_
*1083 _0860_
*1084 _0861_
*1085 _0862_
*1086 _0863_
*1087 _0864_
*1088 _0865_
*1089 _0866_
*1090 _0867_
*1091 _0868_
*1092 _0869_
*1093 _0870_
*1094 _0871_
*1095 _0872_
*1096 _0873_
*1097 _0874_
*1098 _0875_
*1099 _0876_
*1100 _0877_
*1101 _0878_
*1102 _0879_
*1103 _0880_
*1104 _0881_
*1105 _0882_
*1106 _0883_
*1107 _0884_
*1108 _0885_
*1109 _0886_
*1110 _0887_
*1111 _0888_
*1112 _0889_
*1113 _0890_
*1114 _0891_
*1115 _0892_
*1116 _0893_
*1117 _0894_
*1118 _0895_
*1119 _0896_
*1120 _0897_
*1121 _0898_
*1122 _0899_
*1123 _0900_
*1124 _0901_
*1125 _0902_
*1126 _0903_
*1127 _0904_
*1128 _0905_
*1129 _0906_
*1130 _0907_
*1131 _0908_
*1132 _0909_
*1133 _0910_
*1134 _0911_
*1135 _0912_
*1136 _0913_
*1137 _0914_
*1138 _0915_
*1139 _0916_
*1140 _0917_
*1141 _0918_
*1142 _0919_
*1143 _0920_
*1144 _0921_
*1145 _0922_
*1146 _0923_
*1147 _0924_
*1148 _0925_
*1149 _0926_
*1150 _0927_
*1151 _0928_
*1152 _0929_
*1153 _0930_
*1154 _0931_
*1155 _0932_
*1156 _0933_
*1157 _0934_
*1158 _0935_
*1159 _0936_
*1160 _0937_
*1161 _0938_
*1162 _0939_
*1163 _0940_
*1164 _0941_
*1165 _0942_
*1166 _0943_
*1167 _0944_
*1168 _0945_
*1169 _0946_
*1170 _0947_
*1171 _0948_
*1172 _0949_
*1173 _0950_
*1174 _0951_
*1175 _0952_
*1176 _0953_
*1177 _0954_
*1178 _0955_
*1179 _0956_
*1180 _0957_
*1181 _0958_
*1182 _0959_
*1183 _0960_
*1184 _0961_
*1185 _0962_
*1186 _0963_
*1187 _0964_
*1188 _0965_
*1189 _0966_
*1190 _0967_
*1191 _0968_
*1192 _0969_
*1193 _0970_
*1194 _0971_
*1195 _0972_
*1196 _0973_
*1197 _0974_
*1198 _0975_
*1199 _0976_
*1200 _0977_
*1201 _0978_
*1202 _0979_
*1203 _0980_
*1204 _0981_
*1205 _0982_
*1206 _0983_
*1207 _0984_
*1208 _0985_
*1209 _0986_
*1210 _0987_
*1211 _0988_
*1212 _0989_
*1213 _0990_
*1214 _0991_
*1215 _0992_
*1216 _0993_
*1217 _0994_
*1218 _0995_
*1219 _0996_
*1220 _0997_
*1221 _0998_
*1222 _0999_
*1223 _1000_
*1224 _1001_
*1225 _1002_
*1226 _1003_
*1227 _1004_
*1228 _1005_
*1229 _1006_
*1230 _1007_
*1231 _1008_
*1232 _1009_
*1233 _1010_
*1234 _1011_
*1235 _1012_
*1236 _1013_
*1237 _1014_
*1238 _1015_
*1239 _1016_
*1240 _1017_
*1241 _1018_
*1242 _1019_
*1243 _1020_
*1244 _1021_
*1245 _1022_
*1246 _1023_
*1247 _1024_
*1248 _1025_
*1249 _1026_
*1250 _1027_
*1251 _1028_
*1252 _1029_
*1253 _1030_
*1254 _1031_
*1255 _1032_
*1256 _1033_
*1257 _1034_
*1258 _1035_
*1259 _1036_
*1260 _1037_
*1261 _1038_
*1262 _1039_
*1263 _1040_
*1264 _1041_
*1265 _1042_
*1266 _1043_
*1267 _1044_
*1268 _1045_
*1269 _1046_
*1270 _1047_
*1271 _1048_
*1272 _1049_
*1273 _1050_
*1274 _1051_
*1275 _1052_
*1276 _1053_
*1277 _1054_
*1278 _1055_
*1279 _1056_
*1280 _1057_
*1281 _1058_
*1282 _1059_
*1283 _1060_
*1284 _1061_
*1285 _1062_
*1286 _1063_
*1287 _1064_
*1288 _1065_
*1289 _1066_
*1290 _1067_
*1291 _1068_
*1292 _1069_
*1293 _1070_
*1294 _1071_
*1295 _1072_
*1296 _1073_
*1297 _1074_
*1298 _1075_
*1299 _1076_
*1300 _1077_
*1301 _1078_
*1302 _1079_
*1303 _1080_
*1304 _1081_
*1305 _1082_
*1306 _1083_
*1307 _1084_
*1308 _1085_
*1309 _1086_
*1310 _1087_
*1311 _1088_
*1312 _1089_
*1313 _1090_
*1314 _1091_
*1315 _1092_
*1316 _1093_
*1317 _1094_
*1318 _1095_
*1319 _1096_
*1320 _1097_
*1321 _1098_
*1322 _1099_
*1323 _1100_
*1324 _1101_
*1325 _1102_
*1326 _1103_
*1327 _1104_
*1328 _1105_
*1329 _1106_
*1330 _1107_
*1331 _1108_
*1332 _1109_
*1333 _1110_
*1334 _1111_
*1335 _1112_
*1336 _1113_
*1337 _1114_
*1338 _1115_
*1339 _1116_
*1340 _1117_
*1341 _1118_
*1342 _1119_
*1343 _1120_
*1344 _1121_
*1345 _1122_
*1346 _1123_
*1347 _1124_
*1348 _1125_
*1349 _1126_
*1350 _1127_
*1351 _1128_
*1352 _1129_
*1353 _1130_
*1354 _1131_
*1355 _1132_
*1356 _1133_
*1357 _1134_
*1358 _1135_
*1359 _1136_
*1360 _1137_
*1361 _1138_
*1362 _1139_
*1363 _1140_
*1364 _1141_
*1365 _1142_
*1366 _1143_
*1367 _1144_
*1368 _1145_
*1369 _1146_
*1370 _1147_
*1371 _1148_
*1372 _1149_
*1373 _1150_
*1374 _1151_
*1375 _1152_
*1376 _1153_
*1377 _1154_
*1378 _1155_
*1379 _1156_
*1380 _1157_
*1381 _1158_
*1382 _1159_
*1383 _1160_
*1384 _1161_
*1385 _1162_
*1386 _1163_
*1387 _1164_
*1388 _1165_
*1389 _1166_
*1390 _1167_
*1391 _1168_
*1392 _1169_
*1393 _1170_
*1394 _1171_
*1395 _1172_
*1396 _1173_
*1397 _1174_
*1398 _1175_
*1399 _1176_
*1400 _1177_
*1401 _1178_
*1402 _1179_
*1403 _1180_
*1404 _1181_
*1405 _1182_
*1406 _1183_
*1407 _1184_
*1408 _1185_
*1409 _1186_
*1410 _1187_
*1411 _1188_
*1412 _1189_
*1413 _1190_
*1414 _1191_
*1415 _1192_
*1416 _1193_
*1417 _1194_
*1418 _1195_
*1419 _1196_
*1420 _1197_
*1421 _1198_
*1422 _1199_
*1423 _1200_
*1424 _1201_
*1425 _1202_
*1426 _1203_
*1427 _1204_
*1428 _1205_
*1429 _1206_
*1430 clkbuf_0_clk
*1431 _1208_
*1432 _1209_
*1433 _1210_
*1434 _1211_
*1435 _1212_
*1436 _1213_
*1437 _1214_
*1438 _1215_
*1439 _1216_
*1440 _1217_
*1441 _1218_
*1442 _1219_
*1443 _1220_
*1444 _1221_
*1445 _1222_
*1446 _1223_
*1447 _1224_
*1448 _1225_
*1449 _1226_
*1450 _1227_
*1451 _1228_
*1452 _1229_
*1453 _1230_
*1454 _1231_
*1455 pulse_gen_inst\.count_counter\[0\]\$_DFFE_PN0P_
*1456 pulse_gen_inst\.count_counter\[10\]\$_DFFE_PN0P_
*1457 pulse_gen_inst\.count_counter\[11\]\$_DFFE_PN0P_
*1458 pulse_gen_inst\.count_counter\[12\]\$_DFFE_PN0P_
*1459 pulse_gen_inst\.count_counter\[13\]\$_DFFE_PN0P_
*1460 pulse_gen_inst\.count_counter\[14\]\$_DFFE_PN0P_
*1461 pulse_gen_inst\.count_counter\[15\]\$_DFFE_PN0P_
*1462 pulse_gen_inst\.count_counter\[1\]\$_DFFE_PN0P_
*1463 pulse_gen_inst\.count_counter\[2\]\$_DFFE_PN0P_
*1464 pulse_gen_inst\.count_counter\[3\]\$_DFFE_PN0P_
*1465 pulse_gen_inst\.count_counter\[4\]\$_DFFE_PN0P_
*1466 pulse_gen_inst\.count_counter\[5\]\$_DFFE_PN0P_
*1467 pulse_gen_inst\.count_counter\[6\]\$_DFFE_PN0P_
*1468 pulse_gen_inst\.count_counter\[7\]\$_DFFE_PN0P_
*1469 pulse_gen_inst\.count_counter\[8\]\$_DFFE_PN0P_
*1470 pulse_gen_inst\.count_counter\[9\]\$_DFFE_PN0P_
*1471 pulse_gen_inst\.period_counter\[0\]\$_DFFE_PN0P_
*1472 pulse_gen_inst\.period_counter\[10\]\$_DFFE_PN0P_
*1473 pulse_gen_inst\.period_counter\[11\]\$_DFFE_PN0P_
*1474 pulse_gen_inst\.period_counter\[12\]\$_DFFE_PN0P_
*1475 pulse_gen_inst\.period_counter\[13\]\$_DFFE_PN0P_
*1476 pulse_gen_inst\.period_counter\[14\]\$_DFFE_PN0P_
*1477 pulse_gen_inst\.period_counter\[15\]\$_DFFE_PN0P_
*1478 pulse_gen_inst\.period_counter\[16\]\$_DFFE_PN0P_
*1479 pulse_gen_inst\.period_counter\[17\]\$_DFFE_PN0P_
*1480 pulse_gen_inst\.period_counter\[18\]\$_DFFE_PN0P_
*1481 pulse_gen_inst\.period_counter\[19\]\$_DFFE_PN0P_
*1482 pulse_gen_inst\.period_counter\[1\]\$_DFFE_PN0P_
*1483 pulse_gen_inst\.period_counter\[20\]\$_DFFE_PN0P_
*1484 pulse_gen_inst\.period_counter\[21\]\$_DFFE_PN0P_
*1485 pulse_gen_inst\.period_counter\[22\]\$_DFFE_PN0P_
*1486 pulse_gen_inst\.period_counter\[23\]\$_DFFE_PN0P_
*1487 pulse_gen_inst\.period_counter\[24\]\$_DFFE_PN0P_
*1488 pulse_gen_inst\.period_counter\[25\]\$_DFFE_PN0P_
*1489 pulse_gen_inst\.period_counter\[26\]\$_DFFE_PN0P_
*1490 pulse_gen_inst\.period_counter\[27\]\$_DFFE_PN0P_
*1491 pulse_gen_inst\.period_counter\[28\]\$_DFFE_PN0P_
*1492 pulse_gen_inst\.period_counter\[29\]\$_DFFE_PN0P_
*1493 pulse_gen_inst\.period_counter\[2\]\$_DFFE_PN0P_
*1494 pulse_gen_inst\.period_counter\[30\]\$_DFFE_PN0P_
*1495 pulse_gen_inst\.period_counter\[31\]\$_DFFE_PN0P_
*1496 pulse_gen_inst\.period_counter\[3\]\$_DFFE_PN0P_
*1497 pulse_gen_inst\.period_counter\[4\]\$_DFFE_PN0P_
*1498 pulse_gen_inst\.period_counter\[5\]\$_DFFE_PN0P_
*1499 pulse_gen_inst\.period_counter\[6\]\$_DFFE_PN0P_
*1500 pulse_gen_inst\.period_counter\[7\]\$_DFFE_PN0P_
*1501 pulse_gen_inst\.period_counter\[8\]\$_DFFE_PN0P_
*1502 pulse_gen_inst\.period_counter\[9\]\$_DFFE_PN0P_
*1503 pulse_gen_inst\.pulse_active\$_DFF_PN0_
*1504 pulse_gen_inst\.pulse_counter\[0\]\$_DFFE_PN0P_
*1505 pulse_gen_inst\.pulse_counter\[10\]\$_DFFE_PN0P_
*1506 pulse_gen_inst\.pulse_counter\[11\]\$_DFFE_PN0P_
*1507 pulse_gen_inst\.pulse_counter\[12\]\$_DFFE_PN0P_
*1508 pulse_gen_inst\.pulse_counter\[13\]\$_DFFE_PN0P_
*1509 pulse_gen_inst\.pulse_counter\[14\]\$_DFFE_PN0P_
*1510 pulse_gen_inst\.pulse_counter\[15\]\$_DFFE_PN0P_
*1511 pulse_gen_inst\.pulse_counter\[16\]\$_DFFE_PN0P_
*1512 pulse_gen_inst\.pulse_counter\[17\]\$_DFFE_PN0P_
*1513 pulse_gen_inst\.pulse_counter\[18\]\$_DFFE_PN0P_
*1514 pulse_gen_inst\.pulse_counter\[19\]\$_DFFE_PN0P_
*1515 pulse_gen_inst\.pulse_counter\[1\]\$_DFFE_PN0P_
*1516 pulse_gen_inst\.pulse_counter\[20\]\$_DFFE_PN0P_
*1517 pulse_gen_inst\.pulse_counter\[21\]\$_DFFE_PN0P_
*1518 pulse_gen_inst\.pulse_counter\[22\]\$_DFFE_PN0P_
*1519 pulse_gen_inst\.pulse_counter\[23\]\$_DFFE_PN0P_
*1520 pulse_gen_inst\.pulse_counter\[24\]\$_DFFE_PN0P_
*1521 pulse_gen_inst\.pulse_counter\[25\]\$_DFFE_PN0P_
*1522 pulse_gen_inst\.pulse_counter\[26\]\$_DFFE_PN0P_
*1523 pulse_gen_inst\.pulse_counter\[27\]\$_DFFE_PN0P_
*1524 pulse_gen_inst\.pulse_counter\[28\]\$_DFFE_PN0P_
*1525 pulse_gen_inst\.pulse_counter\[29\]\$_DFFE_PN0P_
*1526 pulse_gen_inst\.pulse_counter\[2\]\$_DFFE_PN0P_
*1527 pulse_gen_inst\.pulse_counter\[30\]\$_DFFE_PN0P_
*1528 pulse_gen_inst\.pulse_counter\[31\]\$_DFFE_PN0P_
*1529 pulse_gen_inst\.pulse_counter\[3\]\$_DFFE_PN0P_
*1530 pulse_gen_inst\.pulse_counter\[4\]\$_DFFE_PN0P_
*1531 pulse_gen_inst\.pulse_counter\[5\]\$_DFFE_PN0P_
*1532 pulse_gen_inst\.pulse_counter\[6\]\$_DFFE_PN0P_
*1533 pulse_gen_inst\.pulse_counter\[7\]\$_DFFE_PN0P_
*1534 pulse_gen_inst\.pulse_counter\[8\]\$_DFFE_PN0P_
*1535 pulse_gen_inst\.pulse_counter\[9\]\$_DFFE_PN0P_
*1536 pulse_gen_inst\.ttl_out\$_DFFE_PN0P_
*1537 reg_sequence_select\[0\]\$_DFF_PN0_
*1538 reg_sequence_select\[1\]\$_DFF_PN0_
*1539 reg_sequence_select\[2\]\$_DFF_PN0_
*1540 reg_sequence_select\[3\]\$_DFF_PN0_
*1541 input1
*1542 input2
*1543 input3
*1544 input4
*1545 input5
*1546 output6
*1547 fanout7
*1548 fanout8
*1549 fanout9
*1550 fanout10
*1551 fanout11
*1552 fanout12
*1553 fanout13
*1554 fanout14
*1555 fanout15
*1556 fanout16
*1557 fanout17
*1558 fanout18
*1559 fanout19
*1560 fanout20
*1561 fanout21
*1562 fanout22
*1563 fanout23
*1564 fanout24
*1565 fanout25
*1566 fanout26
*1567 fanout27
*1568 fanout28
*1569 fanout29
*1570 fanout30
*1571 fanout31
*1572 fanout32
*1573 fanout33
*1574 fanout34
*1575 fanout35
*1576 fanout36
*1577 fanout37
*1578 fanout38
*1579 fanout39
*1580 fanout40
*1581 fanout41
*1582 fanout42
*1583 fanout43
*1584 fanout44
*1585 fanout45
*1586 fanout46
*1587 fanout47
*1588 fanout48
*1589 fanout49
*1590 fanout50
*1591 fanout51
*1592 fanout52
*1593 _1208__53
*1594 _1209__54
*1595 _1210__55
*1596 _1211__56
*1597 _1212__57
*1598 _1213__58
*1599 _1214__59
*1600 _1215__60
*1601 _1216__61
*1602 _1217__62
*1603 _1218__63
*1604 _1219__64
*1605 _1220__65
*1606 _1221__66
*1607 _1222__67
*1608 _1223__68
*1609 _1225__69
*1610 _1226__70
*1611 _1227__71
*1612 _1228__72
*1613 _1229__73
*1614 _1230__74
*1615 _1231__75
*1616 clkbuf_4_0_0_clk
*1617 clkbuf_4_1_0_clk
*1618 clkbuf_4_2_0_clk
*1619 clkbuf_4_3_0_clk
*1620 clkbuf_4_4_0_clk
*1621 clkbuf_4_5_0_clk
*1622 clkbuf_4_6_0_clk
*1623 clkbuf_4_7_0_clk
*1624 clkbuf_4_8_0_clk
*1625 clkbuf_4_9_0_clk
*1626 clkbuf_4_10_0_clk
*1627 clkbuf_4_11_0_clk
*1628 clkbuf_4_12_0_clk
*1629 clkbuf_4_13_0_clk
*1630 clkbuf_4_14_0_clk
*1631 clkbuf_4_15_0_clk
*1632 clkload0
*1633 clkload1
*1634 clkload2
*1635 clkload3
*1636 clkload4
*1637 clkload5
*1638 clkload6
*1639 clkload7
*1640 clkload8
*1641 clkload9
*1642 FILLER_0_0
*1643 FILLER_0_7
*1644 FILLER_0_14
*1645 FILLER_0_21
*1646 FILLER_0_28
*1647 FILLER_0_35
*1648 FILLER_0_42
*1649 FILLER_0_49
*1650 FILLER_0_56
*1651 FILLER_0_63
*1652 FILLER_0_70
*1653 FILLER_0_77
*1654 FILLER_0_84
*1655 FILLER_0_91
*1656 FILLER_0_98
*1657 FILLER_0_105
*1658 FILLER_0_112
*1659 FILLER_0_119
*1660 FILLER_0_126
*1661 FILLER_0_133
*1662 FILLER_0_140
*1663 FILLER_0_147
*1664 FILLER_0_154
*1665 FILLER_0_161
*1666 FILLER_0_168
*1667 FILLER_0_175
*1668 FILLER_0_182
*1669 FILLER_0_189
*1670 FILLER_0_196
*1671 FILLER_0_203
*1672 FILLER_0_210
*1673 FILLER_0_217
*1674 FILLER_0_224
*1675 FILLER_0_231
*1676 FILLER_0_238
*1677 FILLER_0_245
*1678 FILLER_0_252
*1679 FILLER_0_259
*1680 FILLER_0_266
*1681 FILLER_0_273
*1682 FILLER_0_280
*1683 FILLER_0_287
*1684 FILLER_0_294
*1685 FILLER_0_301
*1686 FILLER_0_308
*1687 FILLER_0_315
*1688 FILLER_0_322
*1689 FILLER_0_329
*1690 FILLER_0_336
*1691 FILLER_0_343
*1692 FILLER_0_350
*1693 FILLER_0_357
*1694 FILLER_0_364
*1695 FILLER_0_371
*1696 FILLER_0_378
*1697 FILLER_0_385
*1698 FILLER_0_392
*1699 FILLER_0_399
*1700 FILLER_0_406
*1701 FILLER_0_413
*1702 FILLER_0_420
*1703 FILLER_0_427
*1704 FILLER_0_429
*1705 FILLER_1_0
*1706 FILLER_1_7
*1707 FILLER_1_14
*1708 FILLER_1_21
*1709 FILLER_1_28
*1710 FILLER_1_35
*1711 FILLER_1_42
*1712 FILLER_1_49
*1713 FILLER_1_56
*1714 FILLER_1_63
*1715 FILLER_1_70
*1716 FILLER_1_77
*1717 FILLER_1_84
*1718 FILLER_1_91
*1719 FILLER_1_98
*1720 FILLER_1_105
*1721 FILLER_1_112
*1722 FILLER_1_119
*1723 FILLER_1_126
*1724 FILLER_1_133
*1725 FILLER_1_140
*1726 FILLER_1_147
*1727 FILLER_1_154
*1728 FILLER_1_161
*1729 FILLER_1_168
*1730 FILLER_1_175
*1731 FILLER_1_182
*1732 FILLER_1_189
*1733 FILLER_1_196
*1734 FILLER_1_203
*1735 FILLER_1_210
*1736 FILLER_1_217
*1737 FILLER_1_224
*1738 FILLER_1_231
*1739 FILLER_1_238
*1740 FILLER_1_245
*1741 FILLER_1_252
*1742 FILLER_1_259
*1743 FILLER_1_266
*1744 FILLER_1_273
*1745 FILLER_1_280
*1746 FILLER_1_287
*1747 FILLER_1_294
*1748 FILLER_1_301
*1749 FILLER_1_308
*1750 FILLER_1_315
*1751 FILLER_1_322
*1752 FILLER_1_329
*1753 FILLER_1_336
*1754 FILLER_1_343
*1755 FILLER_1_350
*1756 FILLER_1_357
*1757 FILLER_1_364
*1758 FILLER_1_371
*1759 FILLER_1_378
*1760 FILLER_1_385
*1761 FILLER_1_392
*1762 FILLER_1_399
*1763 FILLER_1_406
*1764 FILLER_1_413
*1765 FILLER_1_420
*1766 FILLER_1_427
*1767 FILLER_1_429
*1768 FILLER_2_0
*1769 FILLER_2_7
*1770 FILLER_2_14
*1771 FILLER_2_21
*1772 FILLER_2_28
*1773 FILLER_2_35
*1774 FILLER_2_42
*1775 FILLER_2_49
*1776 FILLER_2_56
*1777 FILLER_2_63
*1778 FILLER_2_70
*1779 FILLER_2_77
*1780 FILLER_2_84
*1781 FILLER_2_91
*1782 FILLER_2_98
*1783 FILLER_2_105
*1784 FILLER_2_112
*1785 FILLER_2_119
*1786 FILLER_2_126
*1787 FILLER_2_133
*1788 FILLER_2_140
*1789 FILLER_2_147
*1790 FILLER_2_154
*1791 FILLER_2_161
*1792 FILLER_2_168
*1793 FILLER_2_175
*1794 FILLER_2_182
*1795 FILLER_2_189
*1796 FILLER_2_196
*1797 FILLER_2_203
*1798 FILLER_2_210