*SPEF "ieee 1481-1999"
*DESIGN "tt_um_htfab_pg_1x1"
*DATE "20:26:14 Saturday November 02, 2024"
*VENDOR "The OpenROAD Project"
*PROGRAM "OpenROAD"
*VERSION "v2.0-16649-g40811f37f"
*DESIGN_FLOW "NAME_SCOPE LOCAL" "PIN_CAP NONE"
*DIVIDER /
*DELIMITER :
*BUS_DELIMITER []
*T_UNIT 1 NS
*C_UNIT 1 PF
*R_UNIT 1 OHM
*L_UNIT 1 HENRY

*NAME_MAP
*1 _000_
*2 _001_
*3 _002_
*4 _003_
*5 _004_
*6 _005_
*7 _006_
*8 _007_
*9 _008_
*10 _009_
*11 _010_
*12 _011_
*13 _012_
*14 _013_
*15 _014_
*16 _015_
*17 _016_
*18 _017_
*19 _018_
*20 _019_
*21 _020_
*22 _021_
*23 _022_
*24 _023_
*25 _024_
*26 _025_
*27 _026_
*28 _027_
*29 _028_
*30 _029_
*31 _030_
*32 _031_
*33 _032_
*34 _033_
*35 _034_
*36 _035_
*37 _036_
*38 _037_
*39 _038_
*40 _039_
*41 _040_
*42 _041_
*43 _042_
*44 _043_
*45 _044_
*46 _045_
*47 _046_
*48 _047_
*49 _048_
*50 _049_
*52 clk
*53 ena
*54 rst_n
*55 ui_in[0]
*56 ui_in[1]
*57 ui_in[2]
*58 ui_in[3]
*59 ui_in[4]
*60 ui_in[5]
*61 ui_in[6]
*62 ui_in[7]
*63 uio_in[0]
*64 uio_in[1]
*65 uio_in[2]
*66 uio_in[3]
*67 uio_in[4]
*68 uio_in[5]
*69 uio_in[6]
*70 uio_in[7]
*71 uio_oe[0]
*72 uio_oe[1]
*73 uio_oe[2]
*74 uio_oe[3]
*75 uio_oe[4]
*76 uio_oe[5]
*77 uio_oe[6]
*78 uio_oe[7]
*79 uio_out[0]
*80 uio_out[1]
*81 uio_out[2]
*82 uio_out[3]
*83 uio_out[4]
*84 uio_out[5]
*85 uio_out[6]
*86 uio_out[7]
*87 uo_out[0]
*88 uo_out[1]
*89 uo_out[2]
*90 uo_out[3]
*91 uo_out[4]
*92 uo_out[5]
*93 uo_out[6]
*94 uo_out[7]
*97 net1
*98 net2
*99 net3
*100 net4
*101 net5
*102 net6
*103 net7
*104 net8
*105 net9
*106 net10
*107 net11
*108 net12
*109 net13
*110 net14
*111 net15
*112 net16
*113 net17
*114 net18
*115 net19
*116 net20
*117 net21
*118 net22
*119 net23
*120 net24
*121 net25
*122 net26
*123 net27
*124 net28
*125 net29
*126 net30
*127 net31
*128 net32
*129 net33
*130 net34
*131 net35
*132 net36
*133 net37
*134 net38
*135 net39
*136 net40
*137 _051_
*138 _052_
*139 _053_
*140 _054_
*141 _055_
*142 _056_
*143 _057_
*144 _058_
*145 _059_
*146 _060_
*147 _061_
*148 _062_
*149 _063_
*150 _064_
*151 _065_
*152 _066_
*153 _067_
*154 _068_
*155 _069_
*156 _070_
*157 _071_
*158 _072_
*159 _073_
*160 _074_
*161 _075_
*162 _076_
*163 _077_
*164 _078_
*165 _079_
*166 _080_
*167 _081_
*168 _082_
*169 _083_
*170 _084_
*171 _085_
*172 _086_
*173 _087_
*174 _088_
*175 _089_
*176 _090_
*177 _091_
*178 _092_
*179 _093_
*180 _094_
*181 _095_
*182 _096_
*183 _097_
*184 _098_
*185 _099_
*186 _100_
*187 _101_
*188 _102_
*189 _103_
*190 _104_
*191 _105_
*192 _106_
*193 _107_
*194 _108_
*195 FILLER_0_0
*196 _110_
*197 _111_
*198 _112_
*199 _113_
*200 _114_
*201 _115_
*202 _116_
*203 _117_
*204 _118_
*205 _119_
*206 _120_
*207 _121_
*208 _122_
*209 _123_
*210 _124_
*211 _125_
*212 input1
*213 input2
*214 input3
*215 input4
*216 input5
*217 input6
*218 input7
*219 input8
*220 input9
*221 input10
*222 input11
*223 input12
*224 input13
*225 input14
*226 input15
*227 input16
*228 output17
*229 output18
*230 output19
*231 output20
*232 output21
*233 output22
*234 output23
*235 output24
*236 _110__25
*237 _111__26
*238 _112__27
*239 _113__28
*240 _114__29
*241 _115__30
*242 _116__31
*243 _117__32
*244 _118__33
*245 _119__34
*246 _120__35
*247 _121__36
*248 _122__37
*249 _123__38
*250 _124__39
*251 _125__40
*252 FILLER_0_7
*253 FILLER_0_14
*254 FILLER_0_21
*255 FILLER_0_28
*256 FILLER_0_35
*257 FILLER_0_42
*258 FILLER_0_49
*259 FILLER_0_56
*260 FILLER_0_63
*261 FILLER_0_70
*262 FILLER_0_77
*263 FILLER_0_84
*264 FILLER_0_91
*265 FILLER_0_98
*266 FILLER_0_105
*267 FILLER_0_112
*268 FILLER_0_119
*269 FILLER_0_126
*270 FILLER_0_133
*271 FILLER_0_140
*272 FILLER_0_147
*273 FILLER_0_154
*274 FILLER_0_161
*275 FILLER_0_168
*276 FILLER_0_175
*277 FILLER_0_182
*278 FILLER_0_189
*279 FILLER_0_196
*280 FILLER_0_203
*281 FILLER_0_210
*282 FILLER_0_217
*283 FILLER_0_224
*284 FILLER_0_231
*285 FILLER_0_238
*286 FILLER_0_245
*287 FILLER_0_252
*288 FILLER_0_259
*289 FILLER_0_266
*290 FILLER_0_273
*291 FILLER_0_280
*292 FILLER_0_287
*293 FILLER_0_294
*294 FILLER_0_301
*295 FILLER_0_308
*296 FILLER_0_315
*297 FILLER_0_322
*298 FILLER_0_329
*299 FILLER_0_336
*300 FILLER_0_343
*301 FILLER_0_350
*302 FILLER_0_357
*303 FILLER_0_364
*304 FILLER_0_371
*305 FILLER_0_378
*306 FILLER_0_385
*307 FILLER_0_392
*308 FILLER_0_399
*309 FILLER_0_406
*310 FILLER_0_413
*311 FILLER_0_420
*312 FILLER_0_427
*313 FILLER_0_429
*314 FILLER_1_0
*315 FILLER_1_7
*316 FILLER_1_14
*317 FILLER_1_21
*318 FILLER_1_28
*319 FILLER_1_35
*320 FILLER_1_42
*321 FILLER_1_49
*322 FILLER_1_56
*323 FILLER_1_63
*324 FILLER_1_70
*325 FILLER_1_77
*326 FILLER_1_84
*327 FILLER_1_91
*328 FILLER_1_98
*329 FILLER_1_105
*330 FILLER_1_112
*331 FILLER_1_119
*332 FILLER_1_126
*333 FILLER_1_133
*334 FILLER_1_140
*335 FILLER_1_147
*336 FILLER_1_154
*337 FILLER_1_161
*338 FILLER_1_168
*339 FILLER_1_175
*340 FILLER_1_182
*341 FILLER_1_189
*342 FILLER_1_196
*343 FILLER_1_203
*344 FILLER_1_210
*345 FILLER_1_217
*346 FILLER_1_224
*347 FILLER_1_231
*348 FILLER_1_238
*349 FILLER_1_245
*350 FILLER_1_252
*351 FILLER_1_259
*352 FILLER_1_266
*353 FILLER_1_273
*354 FILLER_1_280
*355 FILLER_1_287
*356 FILLER_1_294
*357 FILLER_1_301
*358 FILLER_1_308
*359 FILLER_1_315
*360 FILLER_1_322
*361 FILLER_1_329
*362 FILLER_1_336
*363 FILLER_1_343
*364 FILLER_1_350
*365 FILLER_1_357
*366 FILLER_1_364
*367 FILLER_1_371
*368 FILLER_1_378
*369 FILLER_1_385
*370 FILLER_1_392
*371 FILLER_1_399
*372 FILLER_1_406
*373 FILLER_1_413
*374 FILLER_1_420
*375 FILLER_1_427
*376 FILLER_1_429
*377 FILLER_2_0
*378 FILLER_2_7
*379 FILLER_2_14
*380 FILLER_2_21
*381 FILLER_2_28
*382 FILLER_2_35
*383 FILLER_2_42
*384 FILLER_2_49
*385 FILLER_2_56
*386 FILLER_2_63
*387 FILLER_2_70
*388 FILLER_2_77
*389 FILLER_2_84
*390 FILLER_2_91
*391 FILLER_2_98
*392 FILLER_2_105
*393 FILLER_2_112
*394 FILLER_2_119
*395 FILLER_2_126
*396 FILLER_2_133
*397 FILLER_2_140
*398 FILLER_2_147
*399 FILLER_2_154
*400 FILLER_2_161
*401 FILLER_2_168
*402 FILLER_2_175
*403 FILLER_2_182
*404 FILLER_2_189
*405 FILLER_2_196
*406 FILLER_2_203
*407 FILLER_2_210
*408 FILLER_2_217
*409 FILLER_2_224
*410 FILLER_2_231
*411 FILLER_2_238
*412 FILLER_2_245
*413 FILLER_2_252
*414 FILLER_2_259
*415 FILLER_2_266
*416 FILLER_2_273
*417 FILLER_2_280
*418 FILLER_2_287
*419 FILLER_2_294
*420 FILLER_2_301
*421 FILLER_2_308
*422 FILLER_2_315
*423 FILLER_2_322
*424 FILLER_2_329
*425 FILLER_2_336
*426 FILLER_2_343
*427 FILLER_2_350
*428 FILLER_2_357
*429 FILLER_2_364
*430 FILLER_2_371
*431 FILLER_2_378
*432 FILLER_2_385
*433 FILLER_2_392
*434 FILLER_2_399
*435 FILLER_2_406
*436 FILLER_2_413
*437 FILLER_2_420
*438 FILLER_2_427
*439 FILLER_2_429
*440 FILLER_3_0
*441 FILLER_3_7
*442 FILLER_3_14
*443 FILLER_3_21
*444 FILLER_3_28
*445 FILLER_3_35
*446 FILLER_3_42
*447 FILLER_3_49
*448 FILLER_3_56
*449 FILLER_3_63
*450 FILLER_3_70
*451 FILLER_3_77
*452 FILLER_3_84
*453 FILLER_3_91
*454 FILLER_3_98
*455 FILLER_3_105
*456 FILLER_3_112
*457 FILLER_3_119
*458 FILLER_3_126
*459 FILLER_3_133
*460 FILLER_3_140
*461 FILLER_3_147
*462 FILLER_3_154
*463 FILLER_3_161
*464 FILLER_3_168
*465 FILLER_3_175
*466 FILLER_3_182
*467 FILLER_3_189
*468 FILLER_3_196
*469 FILLER_3_203
*470 FILLER_3_210
*471 FILLER_3_217
*472 FILLER_3_224
*473 FILLER_3_231
*474 FILLER_3_238
*475 FILLER_3_245
*476 FILLER_3_252
*477 FILLER_3_259
*478 FILLER_3_266
*479 FILLER_3_273
*480 FILLER_3_280
*481 FILLER_3_287
*482 FILLER_3_294
*483 FILLER_3_301
*484 FILLER_3_308
*485 FILLER_3_315
*486 FILLER_3_322
*487 FILLER_3_329
*488 FILLER_3_336
*489 FILLER_3_343
*490 FILLER_3_350
*491 FILLER_3_357
*492 FILLER_3_364
*493 FILLER_3_371
*494 FILLER_3_378
*495 FILLER_3_385
*496 FILLER_3_392
*497 FILLER_3_399
*498 FILLER_3_406
*499 FILLER_3_413
*500 FILLER_3_420
*501 FILLER_3_427
*502 FILLER_3_429
*503 FILLER_4_0
*504 FILLER_4_7
*505 FILLER_4_14
*506 FILLER_4_21
*507 FILLER_4_28
*508 FILLER_4_35
*509 FILLER_4_42
*510 FILLER_4_49
*511 FILLER_4_56
*512 FILLER_4_63
*513 FILLER_4_70
*514 FILLER_4_77
*515 FILLER_4_84
*516 FILLER_4_91
*517 FILLER_4_98
*518 FILLER_4_105
*519 FILLER_4_112
*520 FILLER_4_119
*521 FILLER_4_126
*522 FILLER_4_133
*523 FILLER_4_140
*524 FILLER_4_147
*525 FILLER_4_154
*526 FILLER_4_161
*527 FILLER_4_168
*528 FILLER_4_175
*529 FILLER_4_182
*530 FILLER_4_189
*531 FILLER_4_196
*532 FILLER_4_203
*533 FILLER_4_210
*534 FILLER_4_217
*535 FILLER_4_224
*536 FILLER_4_231
*537 FILLER_4_238
*538 FILLER_4_245
*539 FILLER_4_252
*540 FILLER_4_259
*541 FILLER_4_266
*542 FILLER_4_273
*543 FILLER_4_280
*544 FILLER_4_287
*545 FILLER_4_294
*546 FILLER_4_301
*547 FILLER_4_308
*548 FILLER_4_315
*549 FILLER_4_322
*550 FILLER_4_329
*551 FILLER_4_336
*552 FILLER_4_343
*553 FILLER_4_350
*554 FILLER_4_357
*555 FILLER_4_364
*556 FILLER_4_371
*557 FILLER_4_378
*558 FILLER_4_385
*559 FILLER_4_392
*560 FILLER_4_399
*561 FILLER_4_406
*562 FILLER_4_413
*563 FILLER_4_420
*564 FILLER_4_427
*565 FILLER_4_429
*566 FILLER_5_0
*567 FILLER_5_7
*568 FILLER_5_14
*569 FILLER_5_21
*570 FILLER_5_28
*571 FILLER_5_35
*572 FILLER_5_42
*573 FILLER_5_49
*574 FILLER_5_56
*575 FILLER_5_63
*576 FILLER_5_70
*577 FILLER_5_77
*578 FILLER_5_84
*579 FILLER_5_91
*580 FILLER_5_98
*581 FILLER_5_105
*582 FILLER_5_112
*583 FILLER_5_119
*584 FILLER_5_126
*585 FILLER_5_133
*586 FILLER_5_140
*587 FILLER_5_147
*588 FILLER_5_154
*589 FILLER_5_161
*590 FILLER_5_168
*591 FILLER_5_175
*592 FILLER_5_182
*593 FILLER_5_189
*594 FILLER_5_196
*595 FILLER_5_203
*596 FILLER_5_210
*597 FILLER_5_217
*598 FILLER_5_224
*599 FILLER_5_231
*600 FILLER_5_238
*601 FILLER_5_245
*602 FILLER_5_252
*603 FILLER_5_259
*604 FILLER_5_266
*605 FILLER_5_273
*606 FILLER_5_280
*607 FILLER_5_287
*608 FILLER_5_294
*609 FILLER_5_301
*610 FILLER_5_308
*611 FILLER_5_315
*612 FILLER_5_322
*613 FILLER_5_329
*614 FILLER_5_336
*615 FILLER_5_343
*616 FILLER_5_350
*617 FILLER_5_357
*618 FILLER_5_364
*619 FILLER_5_371
*620 FILLER_5_378
*621 FILLER_5_385
*622 FILLER_5_392
*623 FILLER_5_399
*624 FILLER_5_406
*625 FILLER_5_413
*626 FILLER_5_420
*627 FILLER_5_427
*628 FILLER_5_429
*629 FILLER_6_0
*630 FILLER_6_7
*631 FILLER_6_14
*632 FILLER_6_21
*633 FILLER_6_28
*634 FILLER_6_35
*635 FILLER_6_42
*636 FILLER_6_49
*637 FILLER_6_56
*638 FILLER_6_63
*639 FILLER_6_70
*640 FILLER_6_77
*641 FILLER_6_84
*642 FILLER_6_91
*643 FILLER_6_98
*644 FILLER_6_105
*645 FILLER_6_112
*646 FILLER_6_119
*647 FILLER_6_126
*648 FILLER_6_133
*649 FILLER_6_140
*650 FILLER_6_147
*651 FILLER_6_154
*652 FILLER_6_161
*653 FILLER_6_168
*654 FILLER_6_175
*655 FILLER_6_182
*656 FILLER_6_189
*657 FILLER_6_196
*658 FILLER_6_203
*659 FILLER_6_210
*660 FILLER_6_217
*661 FILLER_6_224
*662 FILLER_6_231
*663 FILLER_6_238
*664 FILLER_6_245
*665 FILLER_6_252
*666 FILLER_6_259
*667 FILLER_6_266
*668 FILLER_6_273
*669 FILLER_6_280
*670 FILLER_6_287
*671 FILLER_6_294
*672 FILLER_6_301
*673 FILLER_6_308
*674 FILLER_6_315
*675 FILLER_6_322
*676 FILLER_6_329
*677 FILLER_6_336
*678 FILLER_6_343
*679 FILLER_6_350
*680 FILLER_6_357
*681 FILLER_6_364
*682 FILLER_6_371
*683 FILLER_6_378
*684 FILLER_6_385
*685 FILLER_6_392
*686 FILLER_6_399
*687 FILLER_6_406
*688 FILLER_6_413
*689 FILLER_6_420
*690 FILLER_6_427
*691 FILLER_6_429
*692 FILLER_7_0
*693 FILLER_7_7
*694 FILLER_7_14
*695 FILLER_7_21
*696 FILLER_7_28
*697 FILLER_7_35
*698 FILLER_7_42
*699 FILLER_7_49
*700 FILLER_7_56
*701 FILLER_7_63
*702 FILLER_7_70
*703 FILLER_7_77
*704 FILLER_7_84
*705 FILLER_7_91
*706 FILLER_7_98
*707 FILLER_7_105
*708 FILLER_7_112
*709 FILLER_7_119
*710 FILLER_7_126
*711 FILLER_7_133
*712 FILLER_7_140
*713 FILLER_7_147
*714 FILLER_7_154
*715 FILLER_7_161
*716 FILLER_7_168
*717 FILLER_7_175
*718 FILLER_7_182
*719 FILLER_7_189
*720 FILLER_7_196
*721 FILLER_7_203
*722 FILLER_7_210
*723 FILLER_7_217
*724 FILLER_7_224
*725 FILLER_7_231
*726 FILLER_7_238
*727 FILLER_7_245
*728 FILLER_7_252
*729 FILLER_7_259
*730 FILLER_7_266
*731 FILLER_7_273
*732 FILLER_7_280
*733 FILLER_7_287
*734 FILLER_7_294
*735 FILLER_7_301
*736 FILLER_7_308
*737 FILLER_7_315
*738 FILLER_7_322
*739 FILLER_7_329
*740 FILLER_7_336
*741 FILLER_7_343
*742 FILLER_7_350
*743 FILLER_7_357
*744 FILLER_7_364
*745 FILLER_7_371
*746 FILLER_7_378
*747 FILLER_7_385
*748 FILLER_7_392
*749 FILLER_7_399
*750 FILLER_7_406
*751 FILLER_7_413
*752 FILLER_7_420
*753 FILLER_7_427
*754 FILLER_7_429
*755 FILLER_8_0
*756 FILLER_8_7
*757 FILLER_8_14
*758 FILLER_8_21
*759 FILLER_8_28
*760 FILLER_8_35
*761 FILLER_8_42
*762 FILLER_8_49
*763 FILLER_8_56
*764 FILLER_8_63
*765 FILLER_8_70
*766 FILLER_8_77
*767 FILLER_8_84
*768 FILLER_8_91
*769 FILLER_8_98
*770 FILLER_8_105
*771 FILLER_8_112
*772 FILLER_8_119
*773 FILLER_8_126
*774 FILLER_8_133
*775 FILLER_8_140
*776 FILLER_8_147
*777 FILLER_8_154
*778 FILLER_8_161
*779 FILLER_8_168
*780 FILLER_8_175
*781 FILLER_8_182
*782 FILLER_8_189
*783 FILLER_8_196
*784 FILLER_8_203
*785 FILLER_8_210
*786 FILLER_8_217
*787 FILLER_8_224
*788 FILLER_8_231
*789 FILLER_8_238
*790 FILLER_8_245
*791 FILLER_8_252
*792 FILLER_8_259
*793 FILLER_8_266
*794 FILLER_8_273
*795 FILLER_8_280
*796 FILLER_8_287
*797 FILLER_8_294
*798 FILLER_8_301
*799 FILLER_8_308
*800 FILLER_8_315
*801 FILLER_8_322
*802 FILLER_8_329
*803 FILLER_8_336
*804 FILLER_8_343
*805 FILLER_8_350
*806 FILLER_8_357
*807 FILLER_8_364
*808 FILLER_8_371
*809 FILLER_8_378
*810 FILLER_8_385
*811 FILLER_8_392
*812 FILLER_8_399
*813 FILLER_8_406
*814 FILLER_8_413
*815 FILLER_8_420
*816 FILLER_8_427
*817 FILLER_8_429
*818 FILLER_9_0
*819 FILLER_9_7
*820 FILLER_9_14
*821 FILLER_9_21
*822 FILLER_9_28
*823 FILLER_9_35
*824 FILLER_9_42
*825 FILLER_9_49
*826 FILLER_9_56
*827 FILLER_9_63
*828 FILLER_9_70
*829 FILLER_9_77
*830 FILLER_9_84
*831 FILLER_9_91
*832 FILLER_9_98
*833 FILLER_9_105
*834 FILLER_9_112
*835 FILLER_9_119
*836 FILLER_9_126
*837 FILLER_9_133
*838 FILLER_9_140
*839 FILLER_9_147
*840 FILLER_9_154
*841 FILLER_9_161
*842 FILLER_9_168
*843 FILLER_9_175
*844 FILLER_9_182
*845 FILLER_9_189
*846 FILLER_9_196
*847 FILLER_9_203
*848 FILLER_9_210
*849 FILLER_9_217
*850 FILLER_9_224
*851 FILLER_9_231
*852 FILLER_9_238
*853 FILLER_9_245
*854 FILLER_9_252
*855 FILLER_9_259
*856 FILLER_9_266
*857 FILLER_9_273
*858 FILLER_9_280
*859 FILLER_9_287
*860 FILLER_9_294
*861 FILLER_9_301
*862 FILLER_9_308
*863 FILLER_9_315
*864 FILLER_9_322
*865 FILLER_9_329
*866 FILLER_9_336
*867 FILLER_9_343
*868 FILLER_9_350
*869 FILLER_9_357
*870 FILLER_9_364
*871 FILLER_9_371
*872 FILLER_9_378
*873 FILLER_9_385
*874 FILLER_9_392
*875 FILLER_9_399
*876 FILLER_9_406
*877 FILLER_9_413
*878 FILLER_9_420
*879 FILLER_9_427
*880 FILLER_9_429
*881 FILLER_10_0
*882 FILLER_10_7
*883 FILLER_10_14
*884 FILLER_10_21
*885 FILLER_10_28
*886 FILLER_10_35
*887 FILLER_10_42
*888 FILLER_10_49
*889 FILLER_10_56
*890 FILLER_10_63
*891 FILLER_10_70
*892 FILLER_10_77
*893 FILLER_10_84
*894 FILLER_10_91
*895 FILLER_10_98
*896 FILLER_10_105
*897 FILLER_10_112
*898 FILLER_10_119
*899 FILLER_10_126
*900 FILLER_10_133
*901 FILLER_10_140
*902 FILLER_10_147
*903 FILLER_10_154
*904 FILLER_10_161
*905 FILLER_10_168
*906 FILLER_10_175
*907 FILLER_10_182
*908 FILLER_10_189
*909 FILLER_10_196
*910 FILLER_10_203
*911 FILLER_10_210
*912 FILLER_10_217
*913 FILLER_10_224
*914 FILLER_10_231
*915 FILLER_10_238
*916 FILLER_10_245
*917 FILLER_10_252
*918 FILLER_10_259
*919 FILLER_10_266
*920 FILLER_10_273
*921 FILLER_10_280
*922 FILLER_10_287
*923 FILLER_10_294
*924 FILLER_10_301
*925 FILLER_10_308
*926 FILLER_10_315
*927 FILLER_10_322
*928 FILLER_10_329
*929 FILLER_10_336
*930 FILLER_10_343
*931 FILLER_10_350
*932 FILLER_10_357
*933 FILLER_10_364
*934 FILLER_10_371
*935 FILLER_10_378
*936 FILLER_10_385
*937 FILLER_10_392
*938 FILLER_10_399
*939 FILLER_10_406
*940 FILLER_10_413
*941 FILLER_10_420
*942 FILLER_10_427
*943 FILLER_10_429
*944 FILLER_11_0
*945 FILLER_11_7
*946 FILLER_11_14
*947 FILLER_11_21
*948 FILLER_11_28
*949 FILLER_11_35
*950 FILLER_11_42
*951 FILLER_11_49
*952 FILLER_11_56
*953 FILLER_11_63
*954 FILLER_11_70
*955 FILLER_11_77
*956 FILLER_11_84
*957 FILLER_11_91
*958 FILLER_11_98
*959 FILLER_11_105
*960 FILLER_11_112
*961 FILLER_11_119
*962 FILLER_11_126
*963 FILLER_11_133
*964 FILLER_11_140
*965 FILLER_11_147
*966 FILLER_11_154
*967 FILLER_11_161
*968 FILLER_11_168
*969 FILLER_11_175
*970 FILLER_11_182
*971 FILLER_11_189
*972 FILLER_11_196
*973 FILLER_11_203
*974 FILLER_11_210
*975 FILLER_11_217
*976 FILLER_11_224
*977 FILLER_11_231
*978 FILLER_11_238
*979 FILLER_11_245
*980 FILLER_11_252
*981 FILLER_11_259
*982 FILLER_11_266
*983 FILLER_11_273
*984 FILLER_11_280
*985 FILLER_11_287
*986 FILLER_11_294
*987 FILLER_11_301
*988 FILLER_11_308
*989 FILLER_11_315
*990 FILLER_11_322
*991 FILLER_11_329
*992 FILLER_11_336
*993 FILLER_11_343
*994 FILLER_11_350
*995 FILLER_11_357
*996 FILLER_11_364
*997 FILLER_11_371
*998 FILLER_11_378
*999 FILLER_11_385
*1000 FILLER_11_392
*1001 FILLER_11_399
*1002 FILLER_11_406
*1003 FILLER_11_413
*1004 FILLER_11_420
*1005 FILLER_11_427
*1006 FILLER_11_429
*1007 FILLER_12_0
*1008 FILLER_12_7
*1009 FILLER_12_14
*1010 FILLER_12_21
*1011 FILLER_12_28
*1012 FILLER_12_35
*1013 FILLER_12_42
*1014 FILLER_12_49
*1015 FILLER_12_56
*1016 FILLER_12_63
*1017 FILLER_12_70
*1018 FILLER_12_77
*1019 FILLER_12_84
*1020 FILLER_12_91
*1021 FILLER_12_98
*1022 FILLER_12_105
*1023 FILLER_12_112
*1024 FILLER_12_119
*1025 FILLER_12_126
*1026 FILLER_12_133
*1027 FILLER_12_140
*1028 FILLER_12_147
*1029 FILLER_12_154
*1030 FILLER_12_161
*1031 FILLER_12_168
*1032 FILLER_12_175
*1033 FILLER_12_182
*1034 FILLER_12_189
*1035 FILLER_12_196
*1036 FILLER_12_203
*1037 FILLER_12_210
*1038 FILLER_12_217
*1039 FILLER_12_224
*1040 FILLER_12_231
*1041 FILLER_12_238
*1042 FILLER_12_245
*1043 FILLER_12_252
*1044 FILLER_12_259
*1045 FILLER_12_266
*1046 FILLER_12_273
*1047 FILLER_12_280
*1048 FILLER_12_287
*1049 FILLER_12_294
*1050 FILLER_12_301
*1051 FILLER_12_308
*1052 FILLER_12_315
*1053 FILLER_12_322
*1054 FILLER_12_329
*1055 FILLER_12_336
*1056 FILLER_12_343
*1057 FILLER_12_350
*1058 FILLER_12_357
*1059 FILLER_12_364
*1060 FILLER_12_371
*1061 FILLER_12_378
*1062 FILLER_12_385
*1063 FILLER_12_392
*1064 FILLER_12_399
*1065 FILLER_12_406
*1066 FILLER_12_413
*1067 FILLER_12_420
*1068 FILLER_12_427
*1069 FILLER_12_429
*1070 FILLER_13_0
*1071 FILLER_13_7
*1072 FILLER_13_14
*1073 FILLER_13_21
*1074 FILLER_13_28
*1075 FILLER_13_35
*1076 FILLER_13_42
*1077 FILLER_13_49
*1078 FILLER_13_56
*1079 FILLER_13_63
*1080 FILLER_13_70
*1081 FILLER_13_77
*1082 FILLER_13_84
*1083 FILLER_13_91
*1084 FILLER_13_98
*1085 FILLER_13_105
*1086 FILLER_13_112
*1087 FILLER_13_119
*1088 FILLER_13_126
*1089 FILLER_13_133
*1090 FILLER_13_140
*1091 FILLER_13_147
*1092 FILLER_13_154
*1093 FILLER_13_161
*1094 FILLER_13_168
*1095 FILLER_13_175
*1096 FILLER_13_182
*1097 FILLER_13_189
*1098 FILLER_13_196
*1099 FILLER_13_203
*1100 FILLER_13_210
*1101 FILLER_13_217
*1102 FILLER_13_224
*1103 FILLER_13_231
*1104 FILLER_13_238
*1105 FILLER_13_245
*1106 FILLER_13_252
*1107 FILLER_13_259
*1108 FILLER_13_266
*1109 FILLER_13_273
*1110 FILLER_13_280
*1111 FILLER_13_287
*1112 FILLER_13_294
*1113 FILLER_13_301
*1114 FILLER_13_308
*1115 FILLER_13_315
*1116 FILLER_13_322
*1117 FILLER_13_329
*1118 FILLER_13_336
*1119 FILLER_13_343
*1120 FILLER_13_350
*1121 FILLER_13_357
*1122 FILLER_13_364
*1123 FILLER_13_371
*1124 FILLER_13_378
*1125 FILLER_13_385
*1126 FILLER_13_392
*1127 FILLER_13_399
*1128 FILLER_13_406
*1129 FILLER_13_413
*1130 FILLER_13_420
*1131 FILLER_13_427
*1132 FILLER_13_429
*1133 FILLER_14_0
*1134 FILLER_14_7
*1135 FILLER_14_14
*1136 FILLER_14_21
*1137 FILLER_14_28
*1138 FILLER_14_35
*1139 FILLER_14_42
*1140 FILLER_14_49
*1141 FILLER_14_56
*1142 FILLER_14_63
*1143 FILLER_14_70
*1144 FILLER_14_77
*1145 FILLER_14_84
*1146 FILLER_14_91
*1147 FILLER_14_98
*1148 FILLER_14_105
*1149 FILLER_14_112
*1150 FILLER_14_119
*1151 FILLER_14_126
*1152 FILLER_14_133
*1153 FILLER_14_140
*1154 FILLER_14_147
*1155 FILLER_14_154
*1156 FILLER_14_161
*1157 FILLER_14_168
*1158 FILLER_14_175
*1159 FILLER_14_182
*1160 FILLER_14_189
*1161 FILLER_14_196
*1162 FILLER_14_203
*1163 FILLER_14_210
*1164 FILLER_14_217
*1165 FILLER_14_224
*1166 FILLER_14_231
*1167 FILLER_14_238
*1168 FILLER_14_245
*1169 FILLER_14_252
*1170 FILLER_14_259
*1171 FILLER_14_266
*1172 FILLER_14_273
*1173 FILLER_14_280
*1174 FILLER_14_287
*1175 FILLER_14_294
*1176 FILLER_14_301
*1177 FILLER_14_308
*1178 FILLER_14_315
*1179 FILLER_14_322
*1180 FILLER_14_329
*1181 FILLER_14_336
*1182 FILLER_14_343
*1183 FILLER_14_350
*1184 FILLER_14_357
*1185 FILLER_14_364
*1186 FILLER_14_371
*1187 FILLER_14_378
*1188 FILLER_14_385
*1189 FILLER_14_392
*1190 FILLER_14_399
*1191 FILLER_14_406
*1192 FILLER_14_413
*1193 FILLER_14_420
*1194 FILLER_14_427
*1195 FILLER_14_429
*1196 FILLER_15_0
*1197 FILLER_15_7
*1198 FILLER_15_14
*1199 FILLER_15_21
*1200 FILLER_15_28
*1201 FILLER_15_35
*1202 FILLER_15_42
*1203 FILLER_15_49
*1204 FILLER_15_56
*1205 FILLER_15_63
*1206 FILLER_15_70
*1207 FILLER_15_77
*1208 FILLER_15_84
*1209 FILLER_15_91
*1210 FILLER_15_98
*1211 FILLER_15_105
*1212 FILLER_15_112
*1213 FILLER_15_119
*1214 FILLER_15_126
*1215 FILLER_15_133
*1216 FILLER_15_140
*1217 FILLER_15_147
*1218 FILLER_15_154
*1219 FILLER_15_161
*1220 FILLER_15_168
*1221 FILLER_15_175
*1222 FILLER_15_182
*1223 FILLER_15_189
*1224 FILLER_15_196
*1225 FILLER_15_203
*1226 FILLER_15_210
*1227 FILLER_15_217
*1228 FILLER_15_224
*1229 FILLER_15_231
*1230 FILLER_15_238
*1231 FILLER_15_245
*1232 FILLER_15_252
*1233 FILLER_15_259
*1234 FILLER_15_266
*1235 FILLER_15_273
*1236 FILLER_15_280
*1237 FILLER_15_287
*1238 FILLER_15_294
*1239 FILLER_15_301
*1240 FILLER_15_308
*1241 FILLER_15_315
*1242 FILLER_15_322
*1243 FILLER_15_329
*1244 FILLER_15_336
*1245 FILLER_15_343
*1246 FILLER_15_350
*1247 FILLER_15_357
*1248 FILLER_15_364
*1249 FILLER_15_371
*1250 FILLER_15_378
*1251 FILLER_15_385
*1252 FILLER_15_392
*1253 FILLER_15_399
*1254 FILLER_15_406
*1255 FILLER_15_413
*1256 FILLER_15_420
*1257 FILLER_15_427
*1258 FILLER_15_429
*1259 FILLER_16_0
*1260 FILLER_16_7
*1261 FILLER_16_14
*1262 FILLER_16_21
*1263 FILLER_16_28
*1264 FILLER_16_35
*1265 FILLER_16_42
*1266 FILLER_16_49
*1267 FILLER_16_56
*1268 FILLER_16_63
*1269 FILLER_16_70
*1270 FILLER_16_77
*1271 FILLER_16_84
*1272 FILLER_16_91
*1273 FILLER_16_98
*1274 FILLER_16_105
*1275 FILLER_16_112
*1276 FILLER_16_119
*1277 FILLER_16_126
*1278 FILLER_16_133
*1279 FILLER_16_140
*1280 FILLER_16_147
*1281 FILLER_16_154
*1282 FILLER_16_161
*1283 FILLER_16_168
*1284 FILLER_16_175
*1285 FILLER_16_182
*1286 FILLER_16_189
*1287 FILLER_16_196
*1288 FILLER_16_203
*1289 FILLER_16_210
*1290 FILLER_16_217
*1291 FILLER_16_224
*1292 FILLER_16_231
*1293 FILLER_16_238
*1294 FILLER_16_245
*1295 FILLER_16_252
*1296 FILLER_16_259
*1297 FILLER_16_266
*1298 FILLER_16_273
*1299 FILLER_16_280
*1300 FILLER_16_287
*1301 FILLER_16_294
*1302 FILLER_16_301
*1303 FILLER_16_308
*1304 FILLER_16_315
*1305 FILLER_16_322
*1306 FILLER_16_329
*1307 FILLER_16_336
*1308 FILLER_16_343
*1309 FILLER_16_350
*1310 FILLER_16_357
*1311 FILLER_16_364
*1312 FILLER_16_371
*1313 FILLER_16_378
*1314 FILLER_16_385
*1315 FILLER_16_392
*1316 FILLER_16_399
*1317 FILLER_16_406
*1318 FILLER_16_413
*1319 FILLER_16_420
*1320 FILLER_16_427
*1321 FILLER_16_429
*1322 FILLER_17_0
*1323 FILLER_17_7
*1324 FILLER_17_14
*1325 FILLER_17_21
*1326 FILLER_17_28
*1327 FILLER_17_35
*1328 FILLER_17_42
*1329 FILLER_17_49
*1330 FILLER_17_56
*1331 FILLER_17_63
*1332 FILLER_17_70
*1333 FILLER_17_77
*1334 FILLER_17_84
*1335 FILLER_17_91
*1336 FILLER_17_98
*1337 FILLER_17_105
*1338 FILLER_17_112
*1339 FILLER_17_119
*1340 FILLER_17_126
*1341 FILLER_17_133
*1342 FILLER_17_140
*1343 FILLER_17_147
*1344 FILLER_17_154
*1345 FILLER_17_161
*1346 FILLER_17_168
*1347 FILLER_17_175
*1348 FILLER_17_182
*1349 FILLER_17_189
*1350 FILLER_17_196
*1351 FILLER_17_203
*1352 FILLER_17_210
*1353 FILLER_17_217
*1354 FILLER_17_224
*1355 FILLER_17_231
*1356 FILLER_17_238
*1357 FILLER_17_245
*1358 FILLER_17_252
*1359 FILLER_17_259
*1360 FILLER_17_266
*1361 FILLER_17_273
*1362 FILLER_17_280
*1363 FILLER_17_287
*1364 FILLER_17_294
*1365 FILLER_17_301
*1366 FILLER_17_308
*1367 FILLER_17_315
*1368 FILLER_17_322
*1369 FILLER_17_329
*1370 FILLER_17_336
*1371 FILLER_17_343
*1372 FILLER_17_350
*1373 FILLER_17_357
*1374 FILLER_17_364
*1375 FILLER_17_371
*1376 FILLER_17_378
*1377 FILLER_17_385
*1378 FILLER_17_392
*1379 FILLER_17_399
*1380 FILLER_17_406
*1381 FILLER_17_413
*1382 FILLER_17_420
*1383 FILLER_17_427
*1384 FILLER_17_429
*1385 FILLER_18_0
*1386 FILLER_18_7
*1387 FILLER_18_14
*1388 FILLER_18_21
*1389 FILLER_18_28
*1390 FILLER_18_35
*1391 FILLER_18_42
*1392 FILLER_18_49
*1393 FILLER_18_56
*1394 FILLER_18_63
*1395 FILLER_18_70
*1396 FILLER_18_77
*1397 FILLER_18_84
*1398 FILLER_18_91
*1399 FILLER_18_98
*1400 FILLER_18_105
*1401 FILLER_18_112
*1402 FILLER_18_119
*1403 FILLER_18_126
*1404 FILLER_18_133
*1405 FILLER_18_140
*1406 FILLER_18_147
*1407 FILLER_18_154
*1408 FILLER_18_161
*1409 FILLER_18_168
*1410 FILLER_18_175
*1411 FILLER_18_182
*1412 FILLER_18_189
*1413 FILLER_18_196
*1414 FILLER_18_203
*1415 FILLER_18_210
*1416 FILLER_18_217
*1417 FILLER_18_224
*1418 FILLER_18_231
*1419 FILLER_18_238
*1420 FILLER_18_245
*1421 FILLER_18_252
*1422 FILLER_18_259
*1423 FILLER_18_266
*1424 FILLER_18_273
*1425 FILLER_18_280
*1426 FILLER_18_287
*1427 FILLER_18_294
*1428 FILLER_18_301
*1429 FILLER_18_308
*1430 FILLER_18_315
*1431 FILLER_18_322
*1432 FILLER_18_329
*1433 FILLER_18_336
*1434 FILLER_18_343
*1435 FILLER_18_350
*1436 FILLER_18_357
*1437 FILLER_18_364
*1438 FILLER_18_371
*1439 FILLER_18_378
*1440 FILLER_18_385
*1441 FILLER_18_392
*1442 FILLER_18_399
*1443 FILLER_18_406
*1444 FILLER_18_413
*1445 FILLER_18_420
*1446 FILLER_18_427
*1447 FILLER_18_429
*1448 FILLER_19_0
*1449 FILLER_19_7
*1450 FILLER_19_14
*1451 FILLER_19_21
*1452 FILLER_19_28
*1453 FILLER_19_35
*1454 FILLER_19_42
*1455 FILLER_19_49
*1456 FILLER_19_56
*1457 FILLER_19_63
*1458 FILLER_19_70
*1459 FILLER_19_77
*1460 FILLER_19_84
*1461 FILLER_19_91
*1462 FILLER_19_98
*1463 FILLER_19_105
*1464 FILLER_19_112
*1465 FILLER_19_119
*1466 FILLER_19_126
*1467 FILLER_19_133
*1468 FILLER_19_140
*1469 FILLER_19_147
*1470 FILLER_19_154
*1471 FILLER_19_161
*1472 FILLER_19_168
*1473 FILLER_19_175
*1474 FILLER_19_182
*1475 FILLER_19_189
*1476 FILLER_19_196
*1477 FILLER_19_203
*1478 FILLER_19_210
*1479 FILLER_19_217
*1480 FILLER_19_224
*1481 FILLER_19_231
*1482 FILLER_19_238
*1483 FILLER_19_245
*1484 FILLER_19_252
*1485 FILLER_19_259
*1486 FILLER_19_266
*1487 FILLER_19_273
*1488 FILLER_19_280
*1489 FILLER_19_287
*1490 FILLER_19_294
*1491 FILLER_19_301
*1492 FILLER_19_308
*1493 FILLER_19_315
*1494 FILLER_19_322
*1495 FILLER_19_329
*1496 FILLER_19_336
*1497 FILLER_19_343
*1498 FILLER_19_350
*1499 FILLER_19_357
*1500 FILLER_19_364
*1501 FILLER_19_371
*1502 FILLER_19_378
*1503 FILLER_19_385
*1504 FILLER_19_392
*1505 FILLER_19_399
*1506 FILLER_19_406
*1507 FILLER_19_413
*1508 FILLER_19_420
*1509 FILLER_19_427
*1510 FILLER_19_429
*1511 FILLER_20_0
*1512 FILLER_20_7
*1513 FILLER_20_14
*1514 FILLER_20_21
*1515 FILLER_20_28
*1516 FILLER_20_35
*1517 FILLER_20_42
*1518 FILLER_20_49
*1519 FILLER_20_56
*1520 FILLER_20_63
*1521 FILLER_20_70
*1522 FILLER_20_77
*1523 FILLER_20_84
*1524 FILLER_20_91
*1525 FILLER_20_98
*1526 FILLER_20_105
*1527 FILLER_20_112
*1528 FILLER_20_119
*1529 FILLER_20_126
*1530 FILLER_20_133
*1531 FILLER_20_140
*1532 FILLER_20_147
*1533 FILLER_20_154
*1534 FILLER_20_161
*1535 FILLER_20_168
*1536 FILLER_20_175
*1537 FILLER_20_182
*1538 FILLER_20_189
*1539 FILLER_20_196
*1540 FILLER_20_203
*1541 FILLER_20_210
*1542 FILLER_20_217
*1543 FILLER_20_224
*1544 FILLER_20_231
*1545 FILLER_20_238
*1546 FILLER_20_245
*1547 FILLER_20_252
*1548 FILLER_20_259
*1549 FILLER_20_266
*1550 FILLER_20_273
*1551 FILLER_20_280
*1552 FILLER_20_287
*1553 FILLER_20_294
*1554 FILLER_20_301
*1555 FILLER_20_308
*1556 FILLER_20_315
*1557 FILLER_20_322
*1558 FILLER_20_329
*1559 FILLER_20_336
*1560 FILLER_20_343
*1561 FILLER_20_350
*1562 FILLER_20_357
*1563 FILLER_20_364
*1564 FILLER_20_371
*1565 FILLER_20_378
*1566 FILLER_20_385
*1567 FILLER_20_392
*1568 FILLER_20_399
*1569 FILLER_20_406
*1570 FILLER_20_413
*1571 FILLER_20_420
*1572 FILLER_20_427
*1573 FILLER_20_429
*1574 FILLER_21_0
*1575 FILLER_21_7
*1576 FILLER_21_14
*1577 FILLER_21_21
*1578 FILLER_21_28
*1579 FILLER_21_35
*1580 FILLER_21_42
*1581 FILLER_21_49
*1582 FILLER_21_56
*1583 FILLER_21_63
*1584 FILLER_21_70
*1585 FILLER_21_77
*1586 FILLER_21_84
*1587 FILLER_21_91
*1588 FILLER_21_98
*1589 FILLER_21_105
*1590 FILLER_21_112
*1591 FILLER_21_119
*1592 FILLER_21_126
*1593 FILLER_21_133
*1594 FILLER_21_140
*1595 FILLER_21_147
*1596 FILLER_21_154
*1597 FILLER_21_161
*1598 FILLER_21_168
*1599 FILLER_21_175
*1600 FILLER_21_182
*1601 FILLER_21_189
*1602 FILLER_21_196
*1603 FILLER_21_203
*1604 FILLER_21_210
*1605 FILLER_21_217
*1606 FILLER_21_224
*1607 FILLER_21_231
*1608 FILLER_21_238
*1609 FILLER_21_245
*1610 FILLER_21_252
*1611 FILLER_21_259
*1612 FILLER_21_266
*1613 FILLER_21_273
*1614 FILLER_21_280
*1615 FILLER_21_287
*1616 FILLER_21_294
*1617 FILLER_21_301
*1618 FILLER_21_308
*1619 FILLER_21_315
*1620 FILLER_21_322
*1621 FILLER_21_329
*1622 FILLER_21_336
*1623 FILLER_21_343
*1624 FILLER_21_350
*1625 FILLER_21_357
*1626 FILLER_21_364
*1627 FILLER_21_371
*1628 FILLER_21_378
*1629 FILLER_21_385
*1630 FILLER_21_392
*1631 FILLER_21_399
*1632 FILLER_21_406
*1633 FILLER_21_413
*1634 FILLER_21_420
*1635 FILLER_21_427
*1636 FILLER_21_429
*1637 FILLER_22_0
*1638 FILLER_22_7
*1639 FILLER_22_14
*1640 FILLER_22_21
*1641 FILLER_22_28
*1642 FILLER_22_35
*1643 FILLER_22_42
*1644 FILLER_22_49
*1645 FILLER_22_56
*1646 FILLER_22_63
*1647 FILLER_22_70
*1648 FILLER_22_77
*1649 FILLER_22_84
*1650 FILLER_22_91
*1651 FILLER_22_98
*1652 FILLER_22_105
*1653 FILLER_22_112
*1654 FILLER_22_119
*1655 FILLER_22_126
*1656 FILLER_22_133
*1657 FILLER_22_140
*1658 FILLER_22_147
*1659 FILLER_22_154
*1660 FILLER_22_161
*1661 FILLER_22_168
*1662 FILLER_22_175
*1663 FILLER_22_182
*1664 FILLER_22_189
*1665 FILLER_22_196
*1666 FILLER_22_203
*1667 FILLER_22_210
*1668 FILLER_22_217
*1669 FILLER_22_224
*1670 FILLER_22_231
*1671 FILLER_22_238
*1672 FILLER_22_245
*1673 FILLER_22_252
*1674 FILLER_22_259
*1675 FILLER_22_266
*1676 FILLER_22_273
*1677 FILLER_22_280
*1678 FILLER_22_287
*1679 FILLER_22_294