*SPEF "ieee 1481-1999"
*DESIGN "tt_um_stochastic_addmultiply_CL123abc"
*DATE "21:39:25 Friday November 01, 2024"
*VENDOR "The OpenROAD Project"
*PROGRAM "OpenROAD"
*VERSION "v2.0-16649-g40811f37f"
*DESIGN_FLOW "NAME_SCOPE LOCAL" "PIN_CAP NONE"
*DIVIDER /
*DELIMITER :
*BUS_DELIMITER []
*T_UNIT 1 NS
*C_UNIT 1 PF
*R_UNIT 1 OHM
*L_UNIT 1 HENRY

*NAME_MAP
*1 SN_Bit_1
*2 _0000_
*3 _0001_
*4 _0002_
*5 _0003_
*6 _0004_
*7 _0005_
*8 _0006_
*9 _0007_
*10 _0008_
*11 _0009_
*12 _0010_
*13 _0011_
*14 _0012_
*15 _0013_
*16 _0014_
*17 _0015_
*18 _0016_
*19 _0017_
*20 _0018_
*21 _0019_
*22 _0020_
*23 _0021_
*24 _0022_
*25 _0023_
*26 _0024_
*27 _0025_
*28 _0026_
*29 _0027_
*30 _0028_
*31 _0029_
*32 _0030_
*33 _0031_
*34 _0032_
*35 _0033_
*36 _0034_
*37 _0035_
*38 _0036_
*39 _0037_
*40 _0038_
*41 _0039_
*42 _0040_
*43 _0041_
*44 _0042_
*45 _0043_
*46 _0044_
*47 _0045_
*48 _0046_
*49 _0047_
*50 _0048_
*51 _0049_
*52 _0050_
*53 _0051_
*54 _0052_
*55 _0053_
*56 _0054_
*57 _0055_
*58 _0056_
*59 _0057_
*60 _0058_
*61 _0059_
*62 _0060_
*63 _0061_
*64 _0062_
*65 _0063_
*66 _0064_
*67 _0065_
*68 _0066_
*69 _0067_
*70 _0068_
*71 _0069_
*72 _0070_
*73 _0071_
*74 _0072_
*75 _0073_
*76 _0074_
*77 _0075_
*78 _0076_
*79 _0077_
*80 _0078_
*81 _0079_
*82 _0080_
*83 _0081_
*84 _0082_
*85 _0083_
*86 _0084_
*87 _0085_
*88 _0086_
*89 _0087_
*90 _0088_
*91 _0089_
*92 _0090_
*93 _0091_
*94 _0092_
*95 _0093_
*96 _0094_
*97 _0095_
*98 _0096_
*99 _0097_
*100 _0098_
*101 _0099_
*102 _0100_
*103 _0101_
*104 _0102_
*105 _0103_
*106 _0104_
*107 _0105_
*108 _0106_
*109 _0107_
*110 _0108_
*111 _0109_
*112 _0110_
*113 _0111_
*114 _0112_
*115 _0113_
*116 _0114_
*117 _0115_
*118 _0116_
*119 _0117_
*120 _0118_
*121 _0119_
*122 _0120_
*123 _0121_
*124 _0122_
*125 _0123_
*126 _0124_
*127 _0125_
*128 _0126_
*129 _0127_
*130 _0128_
*131 _0129_
*132 _0130_
*133 _0131_
*134 _0132_
*135 _0133_
*136 _0134_
*137 _0135_
*138 _0136_
*139 _0137_
*140 _0138_
*141 _0139_
*142 _0140_
*143 _0141_
*144 _0142_
*145 _0143_
*146 _0144_
*147 _0145_
*148 _0146_
*149 _0147_
*150 _0148_
*151 _0149_
*152 _0150_
*153 _0151_
*154 _0152_
*155 _0153_
*156 _0154_
*157 _0155_
*158 _0156_
*159 _0157_
*160 _0158_
*161 _0159_
*162 _0160_
*163 _0161_
*164 _0162_
*165 _0163_
*166 _0164_
*167 _0165_
*168 _0166_
*169 _0167_
*170 _0168_
*171 _0169_
*172 _0170_
*173 _0171_
*174 _0172_
*175 _0173_
*176 _0174_
*177 _0175_
*178 _0176_
*179 _0177_
*180 _0178_
*181 _0179_
*182 _0180_
*183 _0181_
*184 _0182_
*185 _0183_
*186 _0184_
*187 _0185_
*188 _0186_
*189 _0187_
*190 _0188_
*191 _0189_
*192 _0190_
*193 _0191_
*194 _0192_
*195 _0193_
*196 _0194_
*197 _0195_
*198 _0196_
*199 _0197_
*200 _0198_
*201 _0199_
*202 _0200_
*203 _0201_
*204 _0202_
*205 _0203_
*206 _0204_
*207 _0205_
*208 _0206_
*209 _0207_
*210 _0208_
*211 _0209_
*212 _0210_
*213 _0211_
*214 _0212_
*215 _0213_
*216 _0214_
*217 _0215_
*218 _0216_
*219 _0217_
*220 _0218_
*221 _0219_
*222 _0220_
*223 _0221_
*224 _0222_
*225 _0223_
*226 _0224_
*227 _0225_
*228 _0226_
*229 _0227_
*230 _0228_
*231 _0229_
*232 _0230_
*233 _0231_
*234 _0232_
*235 _0233_
*236 _0234_
*237 _0235_
*238 _0236_
*239 _0237_
*240 _0238_
*241 _0239_
*242 _0240_
*243 _0241_
*244 _0242_
*245 _0243_
*246 _0244_
*247 _0245_
*248 _0246_
*249 _0247_
*250 _0248_
*251 _0249_
*252 _0250_
*253 _0251_
*254 _0252_
*255 _0253_
*256 _0254_
*257 _0255_
*258 _0256_
*259 _0257_
*260 _0258_
*261 _0259_
*262 _0260_
*263 _0261_
*264 _0262_
*265 _0263_
*266 _0264_
*267 _0265_
*268 _0266_
*269 _0267_
*270 _0268_
*271 _0269_
*272 _0270_
*273 _0271_
*274 _0272_
*275 _0273_
*276 _0274_
*277 _0275_
*278 _0276_
*279 _0277_
*280 _0278_
*281 _0279_
*282 _0280_
*283 _0281_
*284 _0282_
*285 _0283_
*286 _0284_
*287 _0285_
*288 _0286_
*289 _0287_
*290 _0288_
*291 _0289_
*292 _0290_
*293 _0291_
*294 _0292_
*295 _0293_
*296 _0294_
*297 _0295_
*298 _0296_
*299 _0297_
*300 _0298_
*301 _0299_
*302 _0300_
*303 _0301_
*304 _0302_
*305 _0303_
*306 _0304_
*307 _0305_
*308 _0306_
*309 _0307_
*310 _0308_
*311 _0309_
*312 _0310_
*313 _0311_
*314 _0312_
*315 _0313_
*316 _0314_
*317 _0315_
*318 _0316_
*319 _0317_
*320 _0318_
*321 _0319_
*322 _0320_
*323 _0321_
*324 _0322_
*325 _0323_
*326 _0324_
*327 _0325_
*328 _0326_
*329 _0327_
*330 _0328_
*331 _0329_
*332 _0330_
*333 _0331_
*334 _0332_
*335 _0333_
*336 _0334_
*337 _0335_
*338 _0336_
*339 _0337_
*340 _0338_
*341 _0339_
*342 _0340_
*343 _0341_
*344 _0342_
*345 _0343_
*346 _0344_
*347 _0345_
*348 _0346_
*349 _0347_
*350 _0348_
*351 _0349_
*352 _0350_
*353 _0351_
*354 _0352_
*355 _0353_
*356 _0354_
*357 _0355_
*358 _0356_
*359 _0357_
*360 _0358_
*361 _0359_
*362 _0360_
*363 _0361_
*364 _0362_
*365 _0363_
*366 _0364_
*367 _0365_
*368 _0366_
*369 _0367_
*370 _0368_
*371 _0369_
*372 _0370_
*373 _0371_
*374 _0372_
*375 _0373_
*376 _0374_
*377 _0375_
*378 _0376_
*379 _0377_
*380 _0378_
*381 _0379_
*382 _0380_
*383 _0381_
*384 _0382_
*385 _0383_
*386 _0384_
*387 _0385_
*388 _0386_
*389 _0387_
*390 _0388_
*391 _0389_
*392 _0390_
*393 _0391_
*394 _0392_
*395 _0393_
*396 _0394_
*397 _0395_
*398 _0396_
*399 _0397_
*400 _0398_
*401 _0399_
*402 _0400_
*403 _0401_
*404 _0402_
*405 _0403_
*406 _0404_
*407 _0405_
*408 _0406_
*409 _0407_
*410 _0408_
*411 _0409_
*412 _0410_
*413 _0411_
*414 _0412_
*415 _0413_
*416 _0414_
*417 _0415_
*418 _0416_
*419 _0417_
*420 _0418_
*421 _0419_
*422 _0420_
*423 _0421_
*424 _0422_
*425 _0423_
*426 _0424_
*427 _0425_
*428 _0426_
*429 _0427_
*430 _0428_
*431 _0429_
*432 _0430_
*433 _0431_
*434 _0432_
*435 _0433_
*436 _0434_
*437 _0435_
*438 _0436_
*439 _0437_
*440 _0438_
*441 _0439_
*442 _0440_
*443 _0441_
*444 _0442_
*445 _0443_
*446 _0444_
*447 _0445_
*448 _0446_
*449 _0447_
*450 _0448_
*451 _0449_
*452 _0450_
*453 _0451_
*454 _0452_
*455 _0453_
*456 _0454_
*457 _0455_
*458 _0456_
*459 _0457_
*460 _0458_
*461 _0459_
*462 _0460_
*463 _0461_
*464 _0462_
*465 _0463_
*466 _0464_
*467 _0465_
*468 _0466_
*469 _0467_
*470 _0468_
*471 _0469_
*472 _0470_
*473 _0471_
*474 _0472_
*475 _0473_
*476 _0474_
*477 _0475_
*478 _0476_
*479 _0477_
*480 _0478_
*481 _0479_
*482 _0480_
*483 _0481_
*484 _0482_
*485 _0483_
*486 _0484_
*487 _0485_
*488 _0486_
*489 _0487_
*490 _0488_
*491 _0489_
*492 _0490_
*493 _0491_
*494 _0492_
*495 _0493_
*496 _0494_
*497 _0495_
*498 _0496_
*499 _0497_
*500 _0498_
*501 _0499_
*502 _0500_
*503 _0501_
*504 _0502_
*505 _0503_
*506 _0504_
*507 _0505_
*508 _0506_
*509 _0507_
*510 _0508_
*511 _0509_
*512 _0510_
*513 _0511_
*514 _0512_
*515 _0513_
*516 _0514_
*517 _0515_
*518 _0516_
*519 _0517_
*520 _0518_
*521 _0519_
*522 _0520_
*523 _0521_
*524 _0522_
*525 _0523_
*526 _0524_
*527 _0525_
*528 _0526_
*529 _0527_
*530 _0528_
*531 _0529_
*532 _0530_
*533 _0531_
*534 _0532_
*535 _0533_
*536 _0534_
*537 _0535_
*538 _0536_
*539 _0537_
*540 _0538_
*541 _0539_
*542 _0540_
*543 _0541_
*544 _0542_
*545 _0543_
*546 _0544_
*547 _0545_
*548 _0546_
*549 _0547_
*550 _0548_
*551 _0549_
*552 _0550_
*553 _0551_
*554 _0552_
*555 _0553_
*556 _0554_
*557 _0555_
*558 _0556_
*559 _0557_
*560 _0558_
*561 _0559_
*562 _0560_
*563 _0561_
*564 _0562_
*565 _0563_
*566 _0564_
*567 _0565_
*568 _0566_
*569 _0567_
*570 _0568_
*571 _0569_
*572 _0570_
*573 _0571_
*574 _0572_
*575 _0573_
*576 _0574_
*577 _0575_
*578 _0576_
*579 _0577_
*580 _0578_
*581 _0579_
*582 _0580_
*583 _0581_
*584 _0582_
*585 _0583_
*586 _0584_
*587 _0585_
*588 _0586_
*589 _0587_
*590 _0588_
*591 _0589_
*592 _0590_
*593 _0591_
*594 _0592_
*595 _0593_
*596 _0594_
*597 _0595_
*598 _0596_
*599 _0597_
*600 _0598_
*601 _0599_
*602 _0600_
*603 _0601_
*604 _0602_
*605 _0603_
*606 _0604_
*607 _0605_
*608 _0606_
*609 _0607_
*610 _0608_
*611 _0609_
*612 _0610_
*613 _0611_
*614 _0612_
*615 _0613_
*616 _0614_
*617 _0615_
*618 _0616_
*619 _0617_
*620 _0618_
*621 _0619_
*622 _0620_
*623 _0621_
*624 _0622_
*625 _0623_
*626 _0624_
*627 _0625_
*628 _0626_
*629 _0627_
*630 _0628_
*631 _0629_
*632 _0630_
*633 _0631_
*634 _0632_
*635 _0633_
*636 _0634_
*637 _0635_
*638 _0636_
*639 _0637_
*640 _0638_
*641 _0639_
*642 _0640_
*643 _0641_
*644 _0642_
*645 _0643_
*646 _0644_
*647 _0645_
*648 _0646_
*649 _0647_
*650 _0648_
*651 _0649_
*652 _0650_
*653 _0651_
*654 _0652_
*655 _0653_
*656 _0654_
*657 _0655_
*658 _0656_
*659 _0657_
*660 _0658_
*661 _0659_
*662 _0660_
*663 _0661_
*664 _0662_
*665 _0663_
*666 _0664_
*667 _0665_
*668 _0666_
*669 _0667_
*670 _0668_
*671 _0669_
*672 _0670_
*673 _0671_
*674 _0672_
*675 _0673_
*676 _0674_
*677 _0675_
*678 _0676_
*679 _0677_
*680 _0678_
*681 _0679_
*682 _0680_
*683 _0681_
*684 _0682_
*685 _0683_
*686 _0684_
*687 _0685_
*688 _0686_
*689 _0687_
*690 _0688_
*691 _0689_
*692 _0690_
*693 _0691_
*694 _0692_
*695 _0693_
*696 _0694_
*697 _0695_
*698 _0696_
*699 _0697_
*700 _0698_
*701 _0699_
*702 _0700_
*703 _0701_
*704 _0702_
*705 _0703_
*706 _0704_
*707 _0705_
*708 _0706_
*709 _0707_
*710 _0708_
*711 _0709_
*712 _0710_
*713 _0711_
*714 _0712_
*715 _0713_
*716 _0714_
*717 _0715_
*718 _0716_
*719 _0717_
*720 _0718_
*721 _0719_
*722 _0720_
*723 _0721_
*724 _0722_
*725 _0723_
*726 _0724_
*727 _0725_
*728 _0726_
*729 _0727_
*730 _0728_
*731 _0729_
*732 _0730_
*733 _0731_
*734 _0732_
*735 _0733_
*736 _0734_
*737 _0735_
*738 _0736_
*739 _0737_
*740 _0738_
*741 _0739_
*742 _0740_
*743 _0741_
*744 _0742_
*745 _0743_
*746 _0744_
*747 _0745_
*748 _0746_
*749 _0747_
*750 _0748_
*751 _0749_
*752 _0750_
*753 _0751_
*754 _0752_
*755 _0753_
*756 _0754_
*757 _0755_
*758 _0756_
*759 _0757_
*760 _0758_
*761 _0759_
*762 _0760_
*763 _0761_
*764 _0762_
*765 _0763_
*766 _0764_
*767 _0765_
*768 _0766_
*769 _0767_
*770 _0768_
*771 _0769_
*772 _0770_
*773 _0771_
*774 _0772_
*775 _0773_
*776 _0774_
*777 _0775_
*778 _0776_
*779 _0777_
*780 _0778_
*781 _0779_
*782 _0780_
*783 _0781_
*784 _0782_
*785 _0783_
*786 _0784_
*787 _0785_
*788 _0786_
*789 _0787_
*790 _0788_
*791 _0789_
*792 _0790_
*793 _0791_
*794 _0792_
*795 _0793_
*796 _0794_
*797 _0795_
*798 _0796_
*799 _0797_
*800 _0798_
*801 _0799_
*802 _0800_
*803 _0801_
*804 _0802_
*805 _0803_
*806 _0804_
*807 _0805_
*808 _0806_
*809 _0807_
*810 _0808_
*811 _0809_
*812 _0810_
*813 _0811_
*814 _0812_
*815 _0813_
*816 _0814_
*817 _0815_
*818 _0816_
*819 _0817_
*820 _0818_
*821 _0819_
*822 _0820_
*823 _0821_
*824 _0822_
*825 _0823_
*826 _0824_
*827 _0825_
*828 _0826_
*829 _0827_
*830 _0828_
*831 _0829_
*832 _0830_
*833 _0831_
*834 _0832_
*835 _0833_
*836 _0834_
*837 _0835_
*838 _0836_
*839 _0837_
*840 _0838_
*841 _0839_
*842 _0840_
*843 _0841_
*844 _0842_
*845 _0843_
*846 _0844_
*847 _0845_
*848 _0846_
*849 _0847_
*850 _0848_
*851 _0849_
*852 _0850_
*853 _0851_
*854 _0852_
*855 _0853_
*856 _0854_
*857 _0855_
*858 _0856_
*859 _0857_
*860 _0858_
*861 _0859_
*862 _0860_
*863 _0861_
*864 _0862_
*865 _0863_
*866 _0864_
*867 _0865_
*868 _0866_
*869 _0867_
*870 _0868_
*871 _0869_
*872 _0870_
*873 _0871_
*874 _0872_
*875 _0873_
*876 _0874_
*877 _0875_
*878 _0876_
*879 _0877_
*880 _0878_
*881 _0879_
*882 _0880_
*883 _0881_
*884 _0882_
*885 _0883_
*886 _0884_
*887 _0885_
*888 _0886_
*889 _0887_
*890 _0888_
*891 _0889_
*892 _0890_
*893 _0891_
*894 _0892_
*895 _0893_
*896 _0894_
*897 _0895_
*898 _0896_
*899 _0897_
*900 _0898_
*901 _0899_
*902 _0900_
*903 _0901_
*904 _0902_
*905 _0903_
*906 _0904_
*907 _0905_
*908 _0906_
*909 _0907_
*910 clknet_leaf_0_clk
*911 net95
*912 add_avg\[0\]
*913 add_avg\[1\]
*914 add_avg\[2\]
*915 add_avg\[3\]
*916 add_avg\[4\]
*917 add_avg\[5\]
*918 add_avg\[6\]
*919 add_avg\[7\]
*920 add_avg\[8\]
*921 add_bit_out
*922 add_output\.bitseq\[0\]
*923 add_output\.bitseq\[1\]
*924 add_output\.bitseq\[2\]
*925 add_output\.bitseq\[3\]
*926 add_output\.bitseq\[4\]
*927 add_output\.bitseq\[5\]
*928 add_output\.bitseq\[6\]
*929 add_output\.bitseq\[7\]
*930 add_output\.bitseq\[8\]
*931 add_output\.counter\[0\]
*932 add_output\.counter\[1\]
*933 add_output\.counter\[2\]
*934 add_output\.counter\[3\]
*935 add_up_counter\.clk_counter\[0\]
*936 add_up_counter\.clk_counter\[10\]
*937 add_up_counter\.clk_counter\[11\]
*938 add_up_counter\.clk_counter\[12\]
*939 add_up_counter\.clk_counter\[13\]
*940 add_up_counter\.clk_counter\[14\]
*941 add_up_counter\.clk_counter\[15\]
*942 add_up_counter\.clk_counter\[16\]
*943 add_up_counter\.clk_counter\[17\]
*944 add_up_counter\.clk_counter\[1\]
*945 add_up_counter\.clk_counter\[2\]
*946 add_up_counter\.clk_counter\[3\]
*947 add_up_counter\.clk_counter\[4\]
*948 add_up_counter\.clk_counter\[5\]
*949 add_up_counter\.clk_counter\[6\]
*950 add_up_counter\.clk_counter\[7\]
*951 add_up_counter\.clk_counter\[8\]
*952 add_up_counter\.clk_counter\[9\]
*953 add_up_counter\.prob_counter\[0\]
*954 add_up_counter\.prob_counter\[10\]
*955 add_up_counter\.prob_counter\[11\]
*956 add_up_counter\.prob_counter\[12\]
*957 add_up_counter\.prob_counter\[13\]
*958 add_up_counter\.prob_counter\[14\]
*959 add_up_counter\.prob_counter\[15\]
*960 add_up_counter\.prob_counter\[16\]
*961 add_up_counter\.prob_counter\[1\]
*962 add_up_counter\.prob_counter\[2\]
*963 add_up_counter\.prob_counter\[3\]
*964 add_up_counter\.prob_counter\[4\]
*965 add_up_counter\.prob_counter\[5\]
*966 add_up_counter\.prob_counter\[6\]
*967 add_up_counter\.prob_counter\[7\]
*968 add_up_counter\.prob_counter\[8\]
*969 add_up_counter\.prob_counter\[9\]
*970 clk
*971 ena
*972 global_SN_gen\.Input_1\[0\]
*973 global_SN_gen\.Input_1\[1\]
*974 global_SN_gen\.Input_1\[2\]
*975 global_SN_gen\.Input_1\[3\]
*976 global_SN_gen\.Input_1\[4\]
*977 global_SN_gen\.Input_1\[5\]
*978 global_SN_gen\.Input_1\[6\]
*979 global_SN_gen\.Input_1\[7\]
*980 global_SN_gen\.Input_1\[8\]
*981 global_SN_gen\.Input_2\[0\]
*982 global_SN_gen\.Input_2\[1\]
*983 global_SN_gen\.Input_2\[2\]
*984 global_SN_gen\.Input_2\[3\]
*985 global_SN_gen\.Input_2\[4\]
*986 global_SN_gen\.Input_2\[5\]
*987 global_SN_gen\.Input_2\[6\]
*988 global_SN_gen\.Input_2\[7\]
*989 global_SN_gen\.Input_2\[8\]
*990 global_SN_gen\.lfsr\[0\]
*991 global_SN_gen\.lfsr\[10\]
*992 global_SN_gen\.lfsr\[11\]
*993 global_SN_gen\.lfsr\[12\]
*994 global_SN_gen\.lfsr\[13\]
*995 global_SN_gen\.lfsr\[14\]
*996 global_SN_gen\.lfsr\[15\]
*997 global_SN_gen\.lfsr\[16\]
*998 global_SN_gen\.lfsr\[17\]
*999 global_SN_gen\.lfsr\[18\]
*1000 global_SN_gen\.lfsr\[19\]
*1001 global_SN_gen\.lfsr\[1\]
*1002 global_SN_gen\.lfsr\[20\]
*1003 global_SN_gen\.lfsr\[21\]
*1004 global_SN_gen\.lfsr\[22\]
*1005 global_SN_gen\.lfsr\[23\]
*1006 global_SN_gen\.lfsr\[24\]
*1007 global_SN_gen\.lfsr\[25\]
*1008 global_SN_gen\.lfsr\[26\]
*1009 global_SN_gen\.lfsr\[27\]
*1010 global_SN_gen\.lfsr\[28\]
*1011 global_SN_gen\.lfsr\[29\]
*1012 global_SN_gen\.lfsr\[2\]
*1013 global_SN_gen\.lfsr\[30\]
*1014 global_SN_gen\.lfsr\[3\]
*1015 global_SN_gen\.lfsr\[4\]
*1016 global_SN_gen\.lfsr\[5\]
*1017 global_SN_gen\.lfsr\[6\]
*1018 global_SN_gen\.lfsr\[7\]
*1019 global_SN_gen\.lfsr\[8\]
*1020 global_SN_gen\.lfsr\[9\]
*1021 global_input\.adjustment\[0\]
*1022 global_input\.adjustment\[1\]
*1023 global_input\.adjustment\[2\]
*1024 global_input\.adjustment\[3\]
*1025 global_input\.adjustment\[4\]
*1026 global_input\.loop
*1027 global_input\.output_bitcounter_1\[0\]
*1028 global_input\.output_bitcounter_1\[1\]
*1029 global_input\.output_bitcounter_1\[2\]
*1030 global_input\.output_bitcounter_1\[3\]
*1031 global_input\.output_bitcounter_1\[4\]
*1032 global_input\.output_bitcounter_1\[5\]
*1033 global_input\.output_bitcounter_1\[6\]
*1034 global_input\.output_bitcounter_1\[7\]
*1035 global_input\.output_bitcounter_1\[8\]
*1036 global_input\.output_bitcounter_2\[0\]
*1037 global_input\.output_bitcounter_2\[1\]
*1038 global_input\.output_bitcounter_2\[2\]
*1039 global_input\.output_bitcounter_2\[3\]
*1040 global_input\.output_bitcounter_2\[4\]
*1041 global_input\.output_bitcounter_2\[5\]
*1042 global_input\.output_bitcounter_2\[6\]
*1043 global_input\.output_bitcounter_2\[7\]
*1044 global_input\.output_bitcounter_2\[8\]
*1045 global_input\.output_case\[0\]
*1046 global_input\.output_case\[1\]
*1047 global_input\.output_case\[2\]
*1048 global_input\.output_case\[3\]
*1049 mul_avg\[0\]
*1050 mul_avg\[1\]
*1051 mul_avg\[2\]
*1052 mul_avg\[3\]
*1053 mul_avg\[4\]
*1054 mul_avg\[5\]
*1055 mul_avg\[6\]
*1056 mul_avg\[7\]
*1057 mul_avg\[8\]
*1058 mul_bit_out
*1059 mul_output\.bitseq\[0\]
*1060 mul_output\.bitseq\[1\]
*1061 mul_output\.bitseq\[2\]
*1062 mul_output\.bitseq\[3\]
*1063 mul_output\.bitseq\[4\]
*1064 mul_output\.bitseq\[5\]
*1065 mul_output\.bitseq\[6\]
*1066 mul_output\.bitseq\[7\]
*1067 mul_output\.bitseq\[8\]
*1068 mul_output\.counter\[0\]
*1069 mul_output\.counter\[1\]
*1070 mul_output\.counter\[2\]
*1071 mul_output\.counter\[3\]
*1072 mul_up_counter\.prob_counter\[0\]
*1073 mul_up_counter\.prob_counter\[10\]
*1074 mul_up_counter\.prob_counter\[11\]
*1075 mul_up_counter\.prob_counter\[12\]
*1076 mul_up_counter\.prob_counter\[13\]
*1077 mul_up_counter\.prob_counter\[14\]
*1078 mul_up_counter\.prob_counter\[15\]
*1079 mul_up_counter\.prob_counter\[16\]
*1080 mul_up_counter\.prob_counter\[1\]
*1081 mul_up_counter\.prob_counter\[2\]
*1082 mul_up_counter\.prob_counter\[3\]
*1083 mul_up_counter\.prob_counter\[4\]
*1084 mul_up_counter\.prob_counter\[5\]
*1085 mul_up_counter\.prob_counter\[6\]
*1086 mul_up_counter\.prob_counter\[7\]
*1087 mul_up_counter\.prob_counter\[8\]
*1088 mul_up_counter\.prob_counter\[9\]
*1089 rst_n
*1090 smul\.SN_Bit_Q
*1091 smul_avg\[0\]
*1092 smul_avg\[1\]
*1093 smul_avg\[2\]
*1094 smul_avg\[3\]
*1095 smul_avg\[4\]
*1096 smul_avg\[5\]
*1097 smul_avg\[6\]
*1098 smul_avg\[7\]
*1099 smul_avg\[8\]
*1100 smul_bit_out
*1101 smul_output\.bitseq\[0\]
*1102 smul_output\.bitseq\[1\]
*1103 smul_output\.bitseq\[2\]
*1104 smul_output\.bitseq\[3\]
*1105 smul_output\.bitseq\[4\]
*1106 smul_output\.bitseq\[5\]
*1107 smul_output\.bitseq\[6\]
*1108 smul_output\.bitseq\[7\]
*1109 smul_output\.bitseq\[8\]
*1110 smul_output\.counter\[0\]
*1111 smul_output\.counter\[1\]
*1112 smul_output\.counter\[2\]
*1113 smul_output\.counter\[3\]
*1114 smul_up_counter\.prob_counter\[0\]
*1115 smul_up_counter\.prob_counter\[10\]
*1116 smul_up_counter\.prob_counter\[11\]
*1117 smul_up_counter\.prob_counter\[12\]
*1118 smul_up_counter\.prob_counter\[13\]
*1119 smul_up_counter\.prob_counter\[14\]
*1120 smul_up_counter\.prob_counter\[15\]
*1121 smul_up_counter\.prob_counter\[16\]
*1122 smul_up_counter\.prob_counter\[1\]
*1123 smul_up_counter\.prob_counter\[2\]
*1124 smul_up_counter\.prob_counter\[3\]
*1125 smul_up_counter\.prob_counter\[4\]
*1126 smul_up_counter\.prob_counter\[5\]
*1127 smul_up_counter\.prob_counter\[6\]
*1128 smul_up_counter\.prob_counter\[7\]
*1129 smul_up_counter\.prob_counter\[8\]
*1130 smul_up_counter\.prob_counter\[9\]
*1131 ui_in[0]
*1132 ui_in[1]
*1133 ui_in[2]
*1134 ui_in[3]
*1135 ui_in[4]
*1136 ui_in[5]
*1137 ui_in[6]
*1138 ui_in[7]
*1139 uio_in[0]
*1140 uio_in[1]
*1141 uio_in[2]
*1142 uio_in[3]
*1143 uio_in[4]
*1144 uio_in[5]
*1145 uio_in[6]
*1146 uio_in[7]
*1147 uio_oe[0]
*1148 uio_oe[1]
*1149 uio_oe[2]
*1150 uio_oe[3]
*1151 uio_oe[4]
*1152 uio_oe[5]
*1153 uio_oe[6]
*1154 uio_oe[7]
*1155 uio_out[0]
*1156 uio_out[1]
*1157 uio_out[2]
*1158 uio_out[3]
*1159 uio_out[4]
*1160 uio_out[5]
*1161 uio_out[6]
*1162 uio_out[7]
*1163 uo_out[0]
*1164 uo_out[1]
*1165 uo_out[2]
*1166 uo_out[3]
*1167 uo_out[4]
*1168 uo_out[5]
*1169 uo_out[6]
*1170 uo_out[7]
*1173 net1
*1174 net2
*1175 net3
*1176 net4
*1177 net5
*1178 net6
*1179 net7
*1180 net8
*1181 net9
*1182 net10
*1183 net11
*1184 net12
*1185 net13
*1186 net14
*1187 net15
*1188 net16
*1189 net17
*1190 net18
*1191 net19
*1192 net20
*1193 net21
*1194 net22
*1195 net23
*1196 net24
*1197 net25
*1198 net26
*1199 net27
*1200 net28
*1201 net29
*1202 net30
*1203 net31
*1204 net32
*1205 net33
*1206 net34
*1207 net35
*1208 net36
*1209 net37
*1210 net38
*1211 net39
*1212 net40
*1213 net41
*1214 net42
*1215 net43
*1216 net44
*1217 net45
*1218 net46
*1219 net47
*1220 net48
*1221 net49
*1222 net50
*1223 net51
*1224 net52
*1225 net53
*1226 net54
*1227 net55
*1228 net56
*1229 net57
*1230 net58
*1231 net59
*1232 net60
*1233 net61
*1234 net62
*1235 net63
*1236 net64
*1237 net65
*1238 net66
*1239 net67
*1240 net68
*1241 net69
*1242 net70
*1243 net71
*1244 net72
*1245 net73
*1246 net74
*1247 net75
*1248 net76
*1249 net77
*1250 net78
*1251 net79
*1252 net80
*1253 net81
*1254 net82
*1255 net83
*1256 net84
*1257 net85
*1258 net86
*1259 net87
*1260 net88
*1261 net89
*1262 net90
*1263 net91
*1264 net92
*1265 net93
*1266 net94
*1267 clknet_leaf_1_clk
*1268 clknet_leaf_2_clk
*1269 clknet_leaf_3_clk
*1270 clknet_leaf_4_clk
*1271 clknet_leaf_5_clk
*1272 clknet_leaf_6_clk
*1273 clknet_leaf_7_clk
*1274 clknet_leaf_8_clk
*1275 clknet_leaf_9_clk
*1276 clknet_leaf_10_clk
*1277 clknet_leaf_11_clk
*1278 clknet_leaf_12_clk
*1279 clknet_leaf_13_clk
*1280 clknet_leaf_14_clk
*1281 clknet_leaf_15_clk
*1282 clknet_leaf_16_clk
*1283 clknet_leaf_17_clk
*1284 clknet_leaf_18_clk
*1285 clknet_leaf_19_clk
*1286 clknet_leaf_20_clk
*1287 clknet_leaf_21_clk
*1288 clknet_leaf_22_clk
*1289 clknet_leaf_23_clk
*1290 clknet_leaf_24_clk
*1291 clknet_leaf_25_clk
*1292 clknet_leaf_26_clk
*1293 clknet_0_clk
*1294 clknet_2_0__leaf_clk
*1295 clknet_2_1__leaf_clk
*1296 clknet_2_2__leaf_clk
*1297 clknet_2_3__leaf_clk
*1298 _0910_
*1299 _0911_
*1300 _0912_
*1301 _0913_
*1302 _0914_
*1303 _0915_
*1304 _0916_
*1305 _0917_
*1306 _0918_
*1307 _0919_
*1308 _0920_
*1309 _0921_
*1310 _0922_
*1311 _0923_
*1312 _0924_
*1313 _0925_
*1314 _0926_
*1315 _0927_
*1316 _0928_
*1317 _0929_
*1318 _0930_
*1319 _0931_
*1320 _0932_
*1321 _0933_
*1322 _0934_
*1323 _0935_
*1324 _0936_
*1325 _0937_
*1326 _0938_
*1327 _0939_
*1328 _0940_
*1329 _0941_
*1330 _0942_
*1331 _0943_
*1332 _0944_
*1333 _0945_
*1334 _0946_
*1335 _0947_
*1336 _0948_
*1337 _0949_
*1338 _0950_
*1339 _0951_
*1340 _0952_
*1341 _0953_
*1342 _0954_
*1343 _0955_
*1344 _0956_
*1345 _0957_
*1346 _0958_
*1347 _0959_
*1348 _0960_
*1349 _0961_
*1350 _0962_
*1351 _0963_
*1352 _0964_
*1353 _0965_
*1354 _0966_
*1355 _0967_
*1356 _0968_
*1357 _0969_
*1358 _0970_
*1359 _0971_
*1360 _0972_
*1361 _0973_
*1362 _0974_
*1363 _0975_
*1364 _0976_
*1365 _0977_
*1366 _0978_
*1367 _0979_
*1368 _0980_
*1369 _0981_
*1370 _0982_
*1371 _0983_
*1372 _0984_
*1373 _0985_
*1374 _0986_
*1375 _0987_
*1376 _0988_
*1377 _0989_
*1378 _0990_
*1379 _0991_
*1380 _0992_
*1381 _0993_
*1382 _0994_
*1383 _0995_
*1384 _0996_
*1385 _0997_
*1386 _0998_
*1387 _0999_
*1388 _1000_
*1389 _1001_
*1390 _1002_
*1391 _1003_
*1392 _1004_
*1393 _1005_
*1394 _1006_
*1395 _1007_
*1396 _1008_
*1397 _1009_
*1398 _1010_
*1399 _1011_
*1400 _1012_
*1401 _1013_
*1402 _1014_
*1403 _1015_
*1404 _1016_
*1405 _1017_
*1406 _1018_
*1407 _1019_
*1408 _1020_
*1409 _1021_
*1410 _1022_
*1411 _1023_
*1412 _1024_
*1413 _1025_
*1414 _1026_
*1415 _1027_
*1416 _1028_
*1417 _1029_
*1418 _1030_
*1419 _1031_
*1420 _1032_
*1421 _1033_
*1422 _1034_
*1423 _1035_
*1424 _1036_
*1425 _1037_
*1426 _1038_
*1427 _1039_
*1428 _1040_
*1429 _1041_
*1430 _1042_
*1431 _1043_
*1432 _1044_
*1433 _1045_
*1434 _1046_
*1435 _1047_
*1436 _1048_
*1437 _1049_
*1438 _1050_
*1439 _1051_
*1440 _1052_
*1441 _1053_
*1442 _1054_
*1443 _1055_
*1444 _1056_
*1445 _1057_
*1446 _1058_
*1447 _1059_
*1448 _1060_
*1449 _1061_
*1450 _1062_
*1451 _1063_
*1452 _1064_
*1453 _1065_
*1454 _1066_
*1455 _1067_
*1456 _1068_
*1457 _1069_
*1458 _1070_
*1459 _1071_
*1460 _1072_
*1461 _1073_
*1462 _1074_
*1463 _1075_
*1464 _1076_
*1465 _1077_
*1466 _1078_
*1467 _1079_
*1468 _1080_
*1469 _1081_
*1470 _1082_
*1471 _1083_
*1472 _1084_
*1473 _1085_
*1474 _1086_
*1475 _1087_
*1476 _1088_
*1477 _1089_
*1478 _1090_
*1479 _1091_
*1480 _1092_
*1481 _1093_
*1482 _1094_
*1483 _1095_
*1484 _1096_
*1485 _1097_
*1486 _1098_
*1487 _1099_
*1488 _1100_
*1489 _1101_
*1490 _1102_
*1491 _1103_
*1492 _1104_
*1493 _1105_
*1494 _1106_
*1495 _1107_
*1496 _1108_
*1497 _1109_
*1498 _1110_
*1499 _1111_
*1500 _1112_
*1501 _1113_
*1502 _1114_
*1503 _1115_
*1504 _1116_
*1505 _1117_
*1506 _1118_
*1507 _1119_
*1508 _1120_
*1509 _1121_
*1510 _1122_
*1511 _1123_
*1512 _1124_
*1513 _1125_
*1514 _1126_
*1515 _1127_
*1516 _1128_
*1517 _1129_
*1518 _1130_
*1519 _1131_
*1520 _1132_
*1521 _1133_
*1522 _1134_
*1523 _1135_
*1524 _1136_
*1525 _1137_
*1526 _1138_
*1527 _1139_
*1528 _1140_
*1529 _1141_
*1530 _1142_
*1531 _1143_
*1532 _1144_
*1533 _1145_
*1534 _1146_
*1535 _1147_
*1536 _1148_
*1537 _1149_
*1538 _1150_
*1539 _1151_
*1540 _1152_
*1541 _1153_
*1542 _1154_
*1543 _1155_
*1544 _1156_
*1545 _1157_
*1546 _1158_
*1547 _1159_
*1548 _1160_
*1549 _1161_
*1550 _1162_
*1551 _1163_
*1552 _1164_
*1553 _1165_
*1554 _1166_
*1555 _1167_
*1556 _1168_
*1557 _1169_
*1558 _1170_
*1559 _1171_
*1560 _1172_
*1561 _1173_
*1562 _1174_
*1563 _1175_
*1564 _1176_
*1565 _1177_
*1566 _1178_
*1567 _1179_
*1568 _1180_
*1569 _1181_
*1570 _1182_
*1571 _1183_
*1572 _1184_
*1573 _1185_
*1574 _1186_
*1575 _1187_
*1576 _1188_
*1577 _1189_
*1578 _1190_
*1579 _1191_
*1580 _1192_
*1581 _1193_
*1582 _1194_
*1583 _1195_
*1584 _1196_
*1585 _1197_
*1586 _1198_
*1587 _1199_
*1588 _1200_
*1589 _1201_
*1590 _1202_
*1591 _1203_
*1592 _1204_
*1593 _1205_
*1594 _1206_
*1595 _1207_
*1596 _1208_
*1597 _1209_
*1598 _1210_
*1599 _1211_
*1600 _1212_
*1601 _1213_
*1602 _1214_
*1603 _1215_
*1604 _1216_
*1605 _1217_
*1606 _1218_
*1607 _1219_
*1608 _1220_
*1609 _1221_
*1610 _1222_
*1611 _1223_
*1612 _1224_
*1613 _1225_
*1614 _1226_
*1615 _1227_
*1616 _1228_
*1617 _1229_
*1618 _1230_
*1619 _1231_
*1620 _1232_
*1621 _1233_
*1622 _1234_
*1623 _1235_
*1624 _1236_
*1625 _1237_
*1626 _1238_
*1627 _1239_
*1628 _1240_
*1629 _1241_
*1630 _1242_
*1631 _1243_
*1632 _1244_
*1633 _1245_
*1634 _1246_
*1635 _1247_
*1636 _1248_
*1637 _1249_
*1638 _1250_
*1639 _1251_
*1640 _1252_
*1641 _1253_
*1642 _1254_
*1643 _1255_
*1644 _1256_
*1645 _1257_
*1646 _1258_
*1647 _1259_
*1648 _1260_
*1649 _1261_
*1650 _1262_
*1651 _1263_
*1652 _1264_
*1653 _1265_
*1654 _1266_
*1655 _1267_
*1656 _1268_
*1657 _1269_
*1658 _1270_
*1659 _1271_
*1660 _1272_
*1661 _1273_
*1662 _1274_
*1663 _1275_
*1664 _1276_
*1665 _1277_
*1666 _1278_
*1667 _1279_
*1668 _1280_
*1669 _1281_
*1670 _1282_
*1671 _1283_
*1672 _1284_
*1673 _1285_
*1674 _1286_
*1675 _1287_
*1676 _1288_
*1677 _1289_
*1678 _1290_
*1679 _1291_
*1680 _1292_
*1681 _1293_
*1682 _1294_
*1683 _1295_
*1684 _1296_
*1685 _1297_
*1686 _1298_
*1687 _1299_
*1688 _1300_
*1689 _1301_
*1690 _1302_
*1691 _1303_
*1692 _1304_
*1693 _1305_
*1694 _1306_
*1695 _1307_
*1696 _1308_
*1697 _1309_
*1698 _1310_
*1699 _1311_
*1700 _1312_
*1701 _1313_
*1702 _1314_
*1703 _1315_
*1704 _1316_
*1705 _1317_
*1706 _1318_
*1707 _1319_
*1708 _1320_
*1709 _1321_
*1710 _1322_
*1711 _1323_
*1712 _1324_
*1713 _1325_
*1714 _1326_
*1715 _1327_
*1716 _1328_
*1717 _1329_
*1718 _1330_
*1719 _1331_
*1720 _1332_
*1721 _1333_
*1722 _1334_
*1723 _1335_
*1724 _1336_
*1725 _1337_
*1726 _1338_
*1727 _1339_
*1728 _1340_
*1729 _1341_
*1730 _1342_
*1731 _1343_
*1732 _1344_
*1733 _1345_
*1734 _1346_
*1735 _1347_
*1736 _1348_
*1737 _1349_
*1738 _1350_
*1739 _1351_
*1740 _1352_
*1741 _1353_
*1742 _1354_
*1743 _1355_
*1744 _1356_
*1745 _1357_
*1746 _1358_
*1747 _1359_
*1748 _1360_
*1749 _1361_
*1750 _1362_
*1751 _1363_
*1752 _1364_
*1753 _1365_
*1754 _1366_
*1755 _1367_
*1756 _1368_
*1757 _1369_
*1758 _1370_
*1759 _1371_
*1760 _1372_
*1761 _1373_
*1762 _1374_
*1763 _1375_
*1764 _1376_
*1765 _1377_
*1766 _1378_
*1767 _1379_
*1768 _1380_
*1769 _1381_
*1770 _1382_
*1771 _1383_
*1772 _1384_
*1773 _1385_
*1774 _1386_
*1775 _1387_
*1776 _1388_
*1777 _1389_
*1778 _1390_
*1779 _1391_
*1780 _1392_
*1781 _1393_
*1782 _1394_
*1783 _1395_
*1784 _1396_
*1785 _1397_
*1786 _1398_
*1787 _1399_
*1788 _1400_
*1789 _1401_
*1790 _1402_
*1791 _1403_
*1792 _1404_
*1793 _1405_
*1794 _1406_
*1795 _1407_
*1796 _1408_
*1797 _1409_
*1798 _1410_
*1799 _1411_
*1800 _1412_
*1801 _1413_
*1802 _1414_
*1803 _1415_
*1804 _1416_
*1805 _1417_
*1806 _1418_
*1807 _1419_
*1808 _1420_
*1809 _1421_
*1810 _1422_
*1811 _1423_
*1812 _1424_
*1813 _1425_
*1814 _1426_
*1815 _1427_
*1816 _1428_
*1817 _1429_
*1818 _1430_
*1819 _1431_
*1820 _1432_
*1821 _1433_
*1822 _1434_
*1823 _1435_
*1824 _1436_
*1825 _1437_
*1826 _1438_
*1827 _1439_
*1828 _1440_
*1829 _1441_
*1830 _1442_
*1831 _1443_
*1832 _1444_
*1833 _1445_
*1834 _1446_
*1835 _1447_
*1836 _1448_
*1837 _1449_
*1838 _1450_
*1839 _1451_
*1840 _1452_
*1841 _1453_
*1842 _1454_
*1843 _1455_
*1844 _1456_
*1845 _1457_
*1846 _1458_
*1847 _1459_
*1848 _1460_
*1849 _1461_
*1850 _1462_
*1851 _1463_
*1852 _1464_
*1853 _1465_
*1854 _1466_
*1855 _1467_
*1856 _1468_
*1857 _1469_
*1858 _1470_
*1859 _1471_
*1860 _1472_
*1861 _1473_
*1862 _1474_
*1863 _1475_
*1864 _1476_
*1865 _1477_
*1866 _1478_
*1867 _1479_
*1868 _1480_
*1869 _1481_
*1870 _1482_
*1871 _1483_
*1872 _1484_
*1873 _1485_
*1874 _1486_
*1875 _1487_
*1876 _1488_
*1877 _1489_
*1878 _1490_
*1879 _1491_
*1880 _1492_
*1881 _1493_
*1882 _1494_
*1883 _1495_
*1884 _1496_
*1885 _1497_
*1886 _1498_
*1887 _1499_
*1888 _1500_
*1889 _1501_
*1890 _1502_
*1891 _1503_
*1892 _1504_
*1893 _1505_
*1894 _1506_
*1895 _1507_
*1896 _1508_
*1897 _1509_
*1898 _1510_
*1899 _1511_
*1900 _1512_
*1901 _1513_
*1902 _1514_
*1903 _1515_
*1904 _1516_
*1905 _1517_
*1906 _1518_
*1907 _1519_
*1908 _1520_
*1909 _1521_
*1910 _1522_
*1911 _1523_
*1912 _1524_
*1913 _1525_
*1914 _1526_
*1915 _1527_
*1916 _1528_
*1917 _1529_
*1918 _1530_
*1919 _1531_
*1920 _1532_
*1921 _1533_
*1922 _1534_
*1923 _1535_
*1924 _1536_
*1925 _1537_
*1926 _1538_
*1927 _1539_
*1928 _1540_
*1929 _1541_
*1930 _1542_
*1931 _1543_
*1932 _1544_
*1933 _1545_
*1934 _1546_
*1935 _1547_
*1936 _1548_
*1937 _1549_
*1938 _1550_
*1939 _1551_
*1940 _1552_
*1941 _1553_
*1942 _1554_
*1943 _1555_
*1944 _1556_
*1945 _1557_
*1946 _1558_
*1947 _1559_
*1948 _1560_
*1949 _1561_
*1950 _1562_
*1951 _1563_
*1952 _1564_
*1953 _1565_
*1954 _1566_
*1955 _1567_
*1956 _1568_
*1957 _1569_
*1958 _1570_
*1959 _1571_
*1960 _1572_
*1961 _1573_
*1962 _1574_
*1963 _1575_
*1964 _1576_
*1965 _1577_
*1966 _1578_
*1967 _1579_
*1968 _1580_
*1969 _1581_
*1970 _1582_
*1971 _1583_
*1972 _1584_
*1973 _1585_
*1974 _1586_
*1975 _1587_
*1976 _1588_
*1977 _1589_
*1978 _1590_
*1979 _1591_
*1980 _1592_
*1981 _1593_
*1982 _1594_
*1983 _1595_
*1984 _1596_
*1985 _1597_
*1986 _1598_
*1987 _1599_
*1988 _1600_
*1989 _1601_