*SPEF "ieee 1481-1999"
*DESIGN "tt_um_rebeccargb_universal_decoder"
*DATE "23:38:48 Thursday October 24, 2024"
*VENDOR "The OpenROAD Project"
*PROGRAM "OpenROAD"
*VERSION "v2.0-16649-g40811f37f"
*DESIGN_FLOW "NAME_SCOPE LOCAL" "PIN_CAP NONE"
*DIVIDER /
*DELIMITER :
*BUS_DELIMITER []
*T_UNIT 1 NS
*C_UNIT 1 PF
*R_UNIT 1 OHM
*L_UNIT 1 HENRY

*NAME_MAP
*1 _0000_
*2 _0001_
*3 _0002_
*4 _0003_
*5 _0004_
*6 _0005_
*7 _0006_
*8 _0007_
*9 _0008_
*10 _0009_
*11 _0010_
*12 _0011_
*13 _0012_
*14 _0013_
*15 _0014_
*16 _0015_
*17 _0016_
*18 _0017_
*19 _0018_
*20 _0019_
*21 _0020_
*22 _0021_
*23 _0022_
*24 _0023_
*25 _0024_
*26 _0025_
*27 _0026_
*28 _0027_
*29 _0028_
*30 _0029_
*31 _0030_
*32 _0031_
*33 _0032_
*34 _0033_
*35 _0034_
*36 _0035_
*37 _0036_
*38 _0037_
*39 _0038_
*40 _0039_
*41 _0040_
*42 _0041_
*43 _0042_
*44 _0043_
*45 _0044_
*46 _0045_
*47 _0046_
*48 _0047_
*49 _0048_
*50 _0049_
*51 _0050_
*52 _0051_
*53 _0052_
*54 _0053_
*55 _0054_
*56 _0055_
*57 _0056_
*58 _0057_
*59 _0058_
*60 _0059_
*61 _0060_
*62 _0061_
*63 _0062_
*64 _0063_
*65 _0064_
*66 _0065_
*67 _0066_
*68 _0067_
*69 _0068_
*70 _0069_
*71 _0070_
*72 _0071_
*73 _0072_
*74 _0073_
*75 _0074_
*76 _0075_
*77 _0076_
*78 _0077_
*79 _0078_
*80 _0079_
*81 _0080_
*82 _0081_
*83 _0082_
*84 _0083_
*85 _0084_
*86 _0085_
*87 _0086_
*88 _0087_
*89 _0088_
*90 _0089_
*91 _0090_
*92 _0091_
*93 _0092_
*94 _0093_
*95 _0094_
*96 _0095_
*97 _0096_
*98 _0097_
*99 _0098_
*100 _0099_
*101 _0100_
*102 _0101_
*103 _0102_
*104 _0103_
*105 _0104_
*106 _0105_
*107 _0106_
*108 _0107_
*109 _0108_
*110 _0109_
*111 _0110_
*112 _0111_
*113 _0112_
*114 _0113_
*115 _0114_
*116 _0115_
*117 _0116_
*118 _0117_
*119 _0118_
*120 _0119_
*121 _0120_
*122 _0121_
*123 _0122_
*124 _0123_
*125 _0124_
*126 _0125_
*127 _0126_
*128 _0127_
*129 _0128_
*130 _0129_
*131 _0130_
*132 _0131_
*133 _0132_
*134 _0133_
*135 _0134_
*136 _0135_
*137 _0136_
*138 _0137_
*139 _0138_
*140 _0139_
*141 _0140_
*142 _0141_
*143 _0142_
*144 _0143_
*145 _0144_
*146 _0145_
*147 _0146_
*148 _0147_
*149 _0148_
*150 _0149_
*151 _0150_
*152 _0151_
*153 _0152_
*154 _0153_
*155 _0154_
*156 _0155_
*157 _0156_
*158 _0157_
*159 _0158_
*160 _0159_
*161 _0160_
*162 _0161_
*163 _0162_
*164 _0163_
*165 _0164_
*166 _0165_
*167 _0166_
*168 _0167_
*169 _0168_
*170 _0169_
*171 _0170_
*172 _0171_
*173 _0172_
*174 _0173_
*175 _0174_
*176 _0175_
*177 _0176_
*178 _0177_
*179 _0178_
*180 _0179_
*181 _0180_
*182 _0181_
*183 _0182_
*184 _0183_
*185 _0184_
*186 _0185_
*187 _0186_
*188 _0187_
*189 _0188_
*190 _0189_
*191 _0190_
*192 _0191_
*193 _0192_
*194 _0193_
*195 _0194_
*196 _0195_
*197 _0196_
*198 _0197_
*199 _0198_
*200 _0199_
*201 _0200_
*202 _0201_
*203 _0202_
*204 _0203_
*205 _0204_
*206 _0205_
*207 _0206_
*208 _0207_
*209 _0208_
*210 _0209_
*211 _0210_
*212 _0211_
*213 _0212_
*214 _0213_
*215 _0214_
*216 _0215_
*217 _0216_
*218 _0217_
*219 _0218_
*220 _0219_
*221 _0220_
*222 _0221_
*223 _0222_
*224 _0223_
*225 _0224_
*226 _0225_
*227 _0226_
*228 _0227_
*229 _0228_
*230 _0229_
*231 _0230_
*232 _0231_
*233 _0232_
*234 _0233_
*235 _0234_
*236 _0235_
*237 _0236_
*238 _0237_
*239 _0238_
*240 _0239_
*241 _0240_
*242 _0241_
*243 _0242_
*244 _0243_
*245 _0244_
*246 _0245_
*247 _0246_
*248 _0247_
*249 _0248_
*250 _0249_
*251 _0250_
*252 _0251_
*253 _0252_
*254 _0253_
*255 _0254_
*256 _0255_
*257 _0256_
*258 _0257_
*259 _0258_
*260 _0259_
*261 _0260_
*262 _0261_
*263 _0262_
*264 _0263_
*265 _0264_
*266 _0265_
*267 _0266_
*268 _0267_
*269 _0268_
*270 _0269_
*271 _0270_
*272 _0271_
*273 _0272_
*274 _0273_
*275 _0274_
*276 _0275_
*277 _0276_
*278 _0277_
*279 _0278_
*280 _0279_
*281 _0280_
*282 _0281_
*283 _0282_
*284 _0283_
*285 _0284_
*286 _0285_
*287 _0286_
*288 _0287_
*289 _0288_
*290 _0289_
*291 _0290_
*292 _0291_
*293 _0292_
*294 _0293_
*295 _0294_
*296 _0295_
*297 _0296_
*298 _0297_
*299 _0298_
*300 _0299_
*301 _0300_
*302 _0301_
*303 _0302_
*304 _0303_
*305 _0304_
*306 _0305_
*307 _0306_
*308 _0307_
*309 _0308_
*310 _0309_
*311 _0310_
*312 _0311_
*313 _0312_
*314 _0313_
*315 _0314_
*316 _0315_
*317 _0316_
*318 _0317_
*319 _0318_
*320 _0319_
*321 _0320_
*322 _0321_
*323 _0322_
*324 _0323_
*325 _0324_
*326 _0325_
*327 _0326_
*328 _0327_
*329 _0328_
*330 _0329_
*331 _0330_
*332 _0331_
*333 _0332_
*334 _0333_
*335 _0334_
*336 _0335_
*337 _0336_
*338 _0337_
*339 _0338_
*340 _0339_
*341 _0340_
*342 _0341_
*343 _0342_
*344 _0343_
*345 _0344_
*346 _0345_
*347 _0346_
*348 _0347_
*349 _0348_
*350 _0349_
*351 _0350_
*352 _0351_
*353 _0352_
*354 _0353_
*355 _0354_
*356 _0355_
*357 _0356_
*358 _0357_
*359 _0358_
*360 _0359_
*361 _0360_
*362 _0361_
*363 _0362_
*364 _0363_
*365 _0364_
*366 _0365_
*367 _0366_
*368 _0367_
*369 _0368_
*370 _0369_
*371 _0370_
*372 _0371_
*373 _0372_
*374 _0373_
*375 _0374_
*376 _0375_
*377 _0376_
*378 _0377_
*379 _0378_
*380 _0379_
*381 _0380_
*382 _0381_
*383 _0382_
*384 _0383_
*385 _0384_
*386 _0385_
*387 _0386_
*388 _0387_
*389 _0388_
*390 _0389_
*391 _0390_
*392 _0391_
*393 _0392_
*394 _0393_
*395 _0394_
*396 _0395_
*397 _0396_
*398 _0397_
*399 _0398_
*400 _0399_
*401 _0400_
*402 _0401_
*403 _0402_
*404 _0403_
*405 _0404_
*406 _0405_
*407 _0406_
*408 _0407_
*409 _0408_
*410 _0409_
*411 _0410_
*412 _0411_
*413 _0412_
*414 _0413_
*415 _0414_
*416 _0415_
*417 _0416_
*418 _0417_
*419 _0418_
*420 _0419_
*421 _0420_
*422 _0421_
*423 _0422_
*424 _0423_
*425 _0424_
*426 _0425_
*427 _0426_
*428 _0427_
*429 _0428_
*430 _0429_
*431 _0430_
*432 _0431_
*433 _0432_
*434 _0433_
*435 _0434_
*436 _0435_
*437 _0436_
*438 _0437_
*439 _0438_
*440 _0439_
*441 _0440_
*442 _0441_
*443 _0442_
*444 _0443_
*445 _0444_
*446 _0445_
*447 _0446_
*448 _0447_
*449 _0448_
*450 _0449_
*451 _0450_
*452 _0451_
*453 _0452_
*454 _0453_
*455 _0454_
*456 _0455_
*457 _0456_
*458 _0457_
*459 _0458_
*460 _0459_
*461 _0460_
*462 _0461_
*463 _0462_
*464 _0463_
*465 _0464_
*466 _0465_
*467 _0466_
*468 _0467_
*469 _0468_
*470 _0469_
*471 _0470_
*472 _0471_
*473 _0472_
*474 _0473_
*475 _0474_
*476 _0475_
*477 _0476_
*478 _0477_
*479 _0478_
*480 _0479_
*481 _0480_
*482 _0481_
*483 _0482_
*484 _0483_
*485 _0484_
*486 _0485_
*487 _0486_
*488 _0487_
*489 _0488_
*490 _0489_
*491 _0490_
*492 _0491_
*493 _0492_
*494 _0493_
*495 _0494_
*496 _0495_
*497 _0496_
*498 _0497_
*499 _0498_
*500 _0499_
*501 _0500_
*502 _0501_
*503 _0502_
*504 _0503_
*505 _0504_
*506 _0505_
*507 _0506_
*508 _0507_
*509 _0508_
*510 _0509_
*511 _0510_
*512 _0511_
*513 _0512_
*514 _0513_
*515 _0514_
*516 _0515_
*517 _0516_
*518 _0517_
*519 _0518_
*520 _0519_
*521 _0520_
*522 _0521_
*523 _0522_
*524 _0523_
*525 _0524_
*526 _0525_
*527 _0526_
*528 _0527_
*529 _0528_
*530 _0529_
*531 _0530_
*532 _0531_
*533 _0532_
*534 _0533_
*535 _0534_
*536 _0535_
*537 _0536_
*538 _0537_
*539 _0538_
*540 _0539_
*541 _0540_
*542 _0541_
*543 _0542_
*544 _0543_
*545 _0544_
*546 _0545_
*547 _0546_
*548 _0547_
*549 _0548_
*550 _0549_
*551 _0550_
*552 _0551_
*553 _0552_
*554 _0553_
*555 _0554_
*556 _0555_
*557 _0556_
*558 _0557_
*559 _0558_
*560 _0559_
*561 _0560_
*562 _0561_
*563 _0562_
*564 _0563_
*565 _0564_
*566 _0565_
*567 _0566_
*568 _0567_
*569 _0568_
*570 _0569_
*571 _0570_
*572 _0571_
*573 _0572_
*574 _0573_
*575 _0574_
*576 _0575_
*577 _0576_
*578 _0577_
*579 _0578_
*580 _0579_
*581 _0580_
*582 _0581_
*583 _0582_
*584 _0583_
*585 _0584_
*586 _0585_
*587 _0586_
*588 _0587_
*589 _0588_
*590 _0589_
*591 _0590_
*592 _0591_
*593 _0592_
*594 _0593_
*595 _0594_
*596 _0595_
*597 _0596_
*598 _0597_
*599 _0598_
*600 _0599_
*601 _0600_
*602 _0601_
*603 _0602_
*604 _0603_
*605 _0604_
*606 _0605_
*607 _0606_
*608 _0607_
*609 _0608_
*610 _0609_
*611 _0610_
*612 _0611_
*613 _0612_
*614 _0613_
*615 _0614_
*616 _0615_
*617 _0616_
*618 _0617_
*619 _0618_
*620 _0619_
*621 _0620_
*622 _0621_
*623 _0622_
*624 _0623_
*625 _0624_
*626 _0625_
*627 _0626_
*628 _0627_
*629 _0628_
*630 _0629_
*631 _0630_
*632 _0631_
*633 _0632_
*634 _0633_
*635 _0634_
*636 _0635_
*637 _0636_
*638 _0637_
*639 _0638_
*640 _0639_
*641 _0640_
*642 _0641_
*643 _0642_
*644 _0643_
*645 _0644_
*646 _0645_
*647 _0646_
*648 _0647_
*649 _0648_
*650 _0649_
*651 _0650_
*652 _0651_
*653 _0652_
*654 _0653_
*655 _0654_
*656 _0655_
*657 _0656_
*658 _0657_
*659 _0658_
*660 _0659_
*661 _0660_
*662 _0661_
*663 _0662_
*664 _0663_
*665 _0664_
*666 _0665_
*667 _0666_
*668 _0667_
*669 _0668_
*670 _0669_
*671 _0670_
*672 _0671_
*673 _0672_
*674 _0673_
*675 _0674_
*676 _0675_
*677 _0676_
*678 _0677_
*679 _0678_
*680 _0679_
*681 _0680_
*682 _0681_
*683 _0682_
*684 _0683_
*685 _0684_
*686 _0685_
*687 _0686_
*689 clk
*690 ena
*691 rst_n
*692 ui_in[0]
*693 ui_in[1]
*694 ui_in[2]
*695 ui_in[3]
*696 ui_in[4]
*697 ui_in[5]
*698 ui_in[6]
*699 ui_in[7]
*700 uio_in[0]
*701 uio_in[1]
*702 uio_in[2]
*703 uio_in[3]
*704 uio_in[4]
*705 uio_in[5]
*706 uio_in[6]
*707 uio_in[7]
*708 uio_oe[0]
*709 uio_oe[1]
*710 uio_oe[2]
*711 uio_oe[3]
*712 uio_oe[4]
*713 uio_oe[5]
*714 uio_oe[6]
*715 uio_oe[7]
*716 uio_out[0]
*717 uio_out[1]
*718 uio_out[2]
*719 uio_out[3]
*720 uio_out[4]
*721 uio_out[5]
*722 uio_out[6]
*723 uio_out[7]
*724 uo_out[0]
*725 uo_out[1]
*726 uo_out[2]
*727 uo_out[3]
*728 uo_out[4]
*729 uo_out[5]
*730 uo_out[6]
*731 uo_out[7]
*734 net1
*735 net2
*736 net3
*737 net4
*738 net5
*739 net6
*740 net7
*741 net8
*742 net9
*743 net10
*744 net11
*745 net12
*746 net13
*747 net14
*748 net15
*749 net16
*750 net17
*751 net18
*752 net19
*753 net20
*754 net21
*755 net22
*756 net23
*757 net24
*758 net25
*759 net26
*760 net27
*761 net28
*762 net29
*763 net30
*764 net31
*765 net32
*766 net33
*767 net34
*768 net35
*769 net36
*770 net37
*771 net38
*772 net39
*773 net40
*774 net41
*775 net42
*776 net43
*777 net44
*778 net45
*779 net46
*780 net47
*781 net48
*782 net49
*783 net50
*784 net51
*785 net52
*786 net53
*787 net54
*788 net55
*789 net56
*790 net57
*791 net58
*792 net59
*793 net60
*794 net61
*795 net62
*796 net63
*797 net64
*798 net65
*799 net66
*800 net67
*801 net68
*802 net69
*803 net70
*804 net71
*805 net72
*806 net73
*807 net74
*808 net75
*809 net76
*810 net77
*811 net78
*812 net79
*813 net80
*814 net81
*815 net82
*816 net83
*817 net84
*818 net85
*819 net86
*820 net87
*821 net88
*822 net89
*823 net90
*824 net91
*825 net92
*826 net93
*827 net94
*828 net95
*829 net96
*830 net97
*831 net98
*832 net99
*833 net100
*834 net101
*835 net102
*836 net103
*837 net104
*838 net105
*839 net106
*840 net107
*841 net108
*842 net109
*843 _0688_
*844 _0689_
*845 _0690_
*846 _0691_
*847 _0692_
*848 _0693_
*849 _0694_
*850 _0695_
*851 _0696_
*852 _0697_
*853 _0698_
*854 _0699_
*855 _0700_
*856 _0701_
*857 _0702_
*858 _0703_
*859 _0704_
*860 _0705_
*861 _0706_
*862 _0707_
*863 _0708_
*864 _0709_
*865 _0710_
*866 _0711_
*867 _0712_
*868 _0713_
*869 _0714_
*870 _0715_
*871 _0716_
*872 _0717_
*873 _0718_
*874 _0719_
*875 _0720_
*876 _0721_
*877 _0722_
*878 _0723_
*879 _0724_
*880 _0725_
*881 _0726_
*882 _0727_
*883 _0728_
*884 _0729_
*885 _0730_
*886 _0731_
*887 _0732_
*888 _0733_
*889 _0734_
*890 _0735_
*891 _0736_
*892 _0737_
*893 _0738_
*894 _0739_
*895 _0740_
*896 _0741_
*897 _0742_
*898 _0743_
*899 _0744_
*900 _0745_
*901 _0746_
*902 _0747_
*903 _0748_
*904 _0749_
*905 _0750_
*906 _0751_
*907 _0752_
*908 _0753_
*909 _0754_
*910 _0755_
*911 _0756_
*912 _0757_
*913 _0758_
*914 _0759_
*915 _0760_
*916 _0761_
*917 _0762_
*918 _0763_
*919 _0764_
*920 _0765_
*921 _0766_
*922 _0767_
*923 _0768_
*924 _0769_
*925 _0770_
*926 _0771_
*927 _0772_
*928 _0773_
*929 _0774_
*930 _0775_
*931 _0776_
*932 _0777_
*933 _0778_
*934 _0779_
*935 _0780_
*936 _0781_
*937 _0782_
*938 _0783_
*939 _0784_
*940 _0785_
*941 _0786_
*942 _0787_
*943 _0788_
*944 _0789_
*945 _0790_
*946 _0791_
*947 _0792_
*948 _0793_
*949 _0794_
*950 _0795_
*951 _0796_
*952 _0797_
*953 _0798_
*954 _0799_
*955 _0800_
*956 _0801_
*957 _0802_
*958 _0803_
*959 _0804_
*960 _0805_
*961 _0806_
*962 _0807_
*963 _0808_
*964 _0809_
*965 _0810_
*966 _0811_
*967 _0812_
*968 _0813_
*969 _0814_
*970 _0815_
*971 _0816_
*972 _0817_
*973 _0818_
*974 _0819_
*975 _0820_
*976 _0821_
*977 _0822_
*978 _0823_
*979 _0824_
*980 _0825_
*981 _0826_
*982 _0827_
*983 _0828_
*984 _0829_
*985 _0830_
*986 _0831_
*987 _0832_
*988 _0833_
*989 _0834_
*990 _0835_
*991 _0836_
*992 _0837_
*993 _0838_
*994 _0839_
*995 _0840_
*996 _0841_
*997 _0842_
*998 _0843_
*999 _0844_
*1000 _0845_
*1001 _0846_
*1002 _0847_
*1003 _0848_
*1004 _0849_
*1005 _0850_
*1006 _0851_
*1007 _0852_
*1008 _0853_
*1009 _0854_
*1010 _0855_
*1011 _0856_
*1012 _0857_
*1013 _0858_
*1014 _0859_
*1015 _0860_
*1016 _0861_
*1017 _0862_
*1018 _0863_
*1019 _0864_
*1020 _0865_
*1021 _0866_
*1022 _0867_
*1023 _0868_
*1024 _0869_
*1025 _0870_
*1026 _0871_
*1027 _0872_
*1028 _0873_
*1029 _0874_
*1030 _0875_
*1031 _0876_
*1032 _0877_
*1033 _0878_
*1034 _0879_
*1035 _0880_
*1036 _0881_
*1037 _0882_
*1038 _0883_
*1039 _0884_
*1040 _0885_
*1041 _0886_
*1042 _0887_
*1043 _0888_
*1044 _0889_
*1045 _0890_
*1046 _0891_
*1047 _0892_
*1048 _0893_
*1049 _0894_
*1050 _0895_
*1051 _0896_
*1052 _0897_
*1053 _0898_
*1054 _0899_
*1055 _0900_
*1056 _0901_
*1057 _0902_
*1058 _0903_
*1059 _0904_
*1060 _0905_
*1061 _0906_
*1062 _0907_
*1063 _0908_
*1064 _0909_
*1065 _0910_
*1066 _0911_
*1067 _0912_
*1068 _0913_
*1069 _0914_
*1070 _0915_
*1071 _0916_
*1072 _0917_
*1073 _0918_
*1074 _0919_
*1075 _0920_
*1076 _0921_
*1077 _0922_
*1078 _0923_
*1079 _0924_
*1080 _0925_
*1081 _0926_
*1082 _0927_
*1083 _0928_
*1084 _0929_
*1085 _0930_
*1086 _0931_
*1087 _0932_
*1088 _0933_
*1089 _0934_
*1090 _0935_
*1091 _0936_
*1092 _0937_
*1093 _0938_
*1094 _0939_
*1095 _0940_
*1096 _0941_
*1097 _0942_
*1098 _0943_
*1099 _0944_
*1100 _0945_
*1101 _0946_
*1102 _0947_
*1103 _0948_
*1104 _0949_
*1105 _0950_
*1106 _0951_
*1107 _0952_
*1108 _0953_
*1109 _0954_
*1110 _0955_
*1111 _0956_
*1112 _0957_
*1113 _0958_
*1114 _0959_
*1115 _0960_
*1116 _0961_
*1117 _0962_
*1118 _0963_
*1119 _0964_
*1120 _0965_
*1121 _0966_
*1122 _0967_
*1123 _0968_
*1124 _0969_
*1125 _0970_
*1126 _0971_
*1127 _0972_
*1128 _0973_
*1129 _0974_
*1130 _0975_
*1131 _0976_
*1132 _0977_
*1133 _0978_
*1134 _0979_
*1135 _0980_
*1136 _0981_
*1137 _0982_
*1138 _0983_
*1139 _0984_
*1140 _0985_
*1141 _0986_
*1142 _0987_
*1143 _0988_
*1144 _0989_
*1145 _0990_
*1146 _0991_
*1147 _0992_
*1148 _0993_
*1149 _0994_
*1150 _0995_
*1151 _0996_
*1152 _0997_
*1153 _0998_
*1154 _0999_
*1155 _1000_
*1156 _1001_
*1157 _1002_
*1158 _1003_
*1159 _1004_
*1160 _1005_
*1161 _1006_
*1162 _1007_
*1163 _1008_
*1164 _1009_
*1165 _1010_
*1166 _1011_
*1167 _1012_
*1168 _1013_
*1169 _1014_
*1170 _1015_
*1171 _1016_
*1172 _1017_
*1173 _1018_
*1174 _1019_
*1175 _1020_
*1176 _1021_
*1177 _1022_
*1178 _1023_
*1179 _1024_
*1180 _1025_
*1181 _1026_
*1182 _1027_
*1183 _1028_
*1184 _1029_
*1185 _1030_
*1186 _1031_
*1187 _1032_
*1188 _1033_
*1189 _1034_
*1190 _1035_
*1191 _1036_
*1192 _1037_
*1193 _1038_
*1194 _1039_
*1195 _1040_
*1196 _1041_
*1197 _1042_
*1198 _1043_
*1199 _1044_
*1200 _1045_
*1201 _1046_
*1202 _1047_
*1203 _1048_
*1204 _1049_
*1205 _1050_
*1206 _1051_
*1207 _1052_
*1208 _1053_
*1209 _1054_
*1210 _1055_
*1211 _1056_
*1212 _1057_
*1213 _1058_
*1214 _1059_
*1215 _1060_
*1216 _1061_
*1217 _1062_
*1218 _1063_
*1219 _1064_
*1220 _1065_
*1221 _1066_
*1222 _1067_
*1223 _1068_
*1224 _1069_
*1225 _1070_
*1226 _1071_
*1227 _1072_
*1228 _1073_
*1229 _1074_
*1230 _1075_
*1231 _1076_
*1232 _1077_
*1233 _1078_
*1234 _1079_
*1235 _1080_
*1236 _1081_
*1237 _1082_
*1238 _1083_
*1239 _1084_
*1240 _1085_
*1241 _1086_
*1242 _1087_
*1243 _1088_
*1244 _1089_
*1245 _1090_
*1246 _1091_
*1247 _1092_
*1248 _1093_
*1249 _1094_
*1250 _1095_
*1251 _1096_
*1252 _1097_
*1253 _1098_
*1254 _1099_
*1255 _1100_
*1256 _1101_
*1257 _1102_
*1258 _1103_
*1259 _1104_
*1260 _1105_
*1261 _1106_
*1262 _1107_
*1263 _1108_
*1264 _1109_
*1265 _1110_
*1266 _1111_
*1267 _1112_
*1268 _1113_
*1269 _1114_
*1270 _1115_
*1271 _1116_
*1272 _1117_
*1273 _1118_
*1274 _1119_
*1275 _1120_
*1276 _1121_
*1277 _1122_
*1278 _1123_
*1279 _1124_
*1280 _1125_
*1281 _1126_
*1282 _1127_
*1283 _1128_
*1284 _1129_
*1285 _1130_
*1286 _1131_
*1287 _1132_
*1288 _1133_
*1289 _1134_
*1290 _1135_
*1291 _1136_
*1292 _1137_
*1293 _1138_
*1294 _1139_
*1295 _1140_
*1296 _1141_
*1297 _1142_
*1298 _1143_
*1299 _1144_
*1300 _1145_
*1301 _1146_
*1302 _1147_
*1303 _1148_
*1304 _1149_
*1305 _1150_
*1306 _1151_
*1307 _1152_
*1308 _1153_
*1309 _1154_
*1310 _1155_
*1311 _1156_
*1312 _1157_
*1313 _1158_
*1314 _1159_
*1315 _1160_
*1316 _1161_
*1317 _1162_
*1318 _1163_
*1319 _1164_
*1320 _1165_
*1321 _1166_
*1322 _1167_
*1323 _1168_
*1324 _1169_
*1325 _1170_
*1326 _1171_
*1327 _1172_
*1328 _1173_
*1329 _1174_
*1330 _1175_
*1331 _1176_
*1332 _1177_
*1333 _1178_
*1334 _1179_
*1335 _1180_
*1336 _1181_
*1337 _1182_
*1338 _1183_
*1339 _1184_
*1340 _1185_
*1341 _1186_
*1342 _1187_
*1343 _1188_
*1344 _1189_
*1345 _1190_
*1346 _1191_
*1347 _1192_
*1348 _1193_
*1349 _1194_
*1350 _1195_
*1351 _1196_
*1352 _1197_
*1353 _1198_
*1354 _1199_
*1355 _1200_
*1356 _1201_
*1357 _1202_
*1358 _1203_
*1359 _1204_
*1360 _1205_
*1361 _1206_
*1362 _1207_
*1363 _1208_
*1364 _1209_
*1365 _1210_
*1366 _1211_
*1367 _1212_
*1368 _1213_
*1369 _1214_
*1370 _1215_
*1371 _1216_
*1372 _1217_
*1373 _1218_
*1374 _1219_
*1375 _1220_
*1376 _1221_
*1377 _1222_
*1378 _1223_
*1379 _1224_
*1380 _1225_
*1381 _1226_
*1382 _1227_
*1383 _1228_
*1384 _1229_
*1385 _1230_
*1386 _1231_
*1387 _1232_
*1388 _1233_
*1389 _1234_
*1390 _1235_
*1391 _1236_
*1392 _1237_
*1393 _1238_
*1394 _1239_
*1395 _1240_
*1396 _1241_
*1397 _1242_
*1398 _1243_
*1399 _1244_
*1400 _1245_
*1401 _1246_
*1402 _1247_
*1403 _1248_
*1404 _1249_
*1405 _1250_
*1406 _1251_
*1407 _1252_
*1408 _1253_
*1409 _1254_
*1410 _1255_
*1411 _1256_
*1412 _1257_
*1413 _1258_
*1414 _1259_
*1415 _1260_
*1416 _1261_
*1417 _1262_
*1418 _1263_
*1419 _1264_
*1420 _1265_
*1421 _1266_
*1422 _1267_
*1423 _1268_
*1424 _1269_
*1425 _1270_
*1426 _1271_
*1427 _1272_
*1428 _1273_
*1429 _1274_
*1430 _1275_
*1431 _1276_
*1432 _1277_
*1433 _1278_
*1434 _1279_
*1435 _1280_
*1436 _1281_
*1437 _1282_
*1438 _1283_
*1439 _1284_
*1440 _1285_
*1441 _1286_
*1442 _1287_
*1443 _1288_
*1444 _1289_
*1445 _1290_
*1446 _1291_
*1447 _1292_
*1448 _1293_
*1449 _1294_
*1450 _1295_
*1451 _1296_
*1452 _1297_
*1453 _1298_
*1454 _1299_
*1455 _1300_
*1456 _1301_
*1457 _1302_
*1458 _1303_
*1459 _1304_
*1460 _1305_
*1461 _1306_
*1462 _1307_
*1463 _1308_
*1464 _1309_
*1465 _1310_
*1466 _1311_
*1467 _1312_
*1468 _1313_
*1469 _1314_
*1470 _1315_
*1471 _1316_
*1472 _1317_
*1473 _1318_
*1474 _1319_
*1475 _1320_
*1476 _1321_
*1477 _1322_
*1478 _1323_
*1479 _1324_
*1480 _1325_
*1481 _1326_
*1482 _1327_
*1483 _1328_
*1484 _1329_
*1485 _1330_
*1486 _1331_
*1487 _1332_
*1488 _1333_
*1489 _1334_
*1490 _1335_
*1491 _1336_
*1492 _1337_
*1493 _1338_
*1494 _1339_
*1495 _1340_
*1496 _1341_
*1497 _1342_
*1498 _1343_
*1499 _1344_
*1500 _1345_
*1501 _1346_
*1502 _1347_
*1503 _1348_
*1504 _1349_
*1505 _1350_
*1506 _1351_
*1507 _1352_
*1508 _1353_
*1509 _1354_
*1510 _1355_
*1511 _1356_
*1512 _1357_
*1513 _1358_
*1514 _1359_
*1515 _1360_
*1516 _1361_
*1517 _1362_
*1518 _1363_
*1519 _1364_
*1520 _1365_
*1521 _1366_
*1522 _1367_
*1523 _1368_
*1524 _1369_
*1525 _1370_
*1526 _1371_
*1527 _1372_
*1528 _1373_
*1529 _1374_
*1530 _1375_
*1531 _1376_
*1532 _1377_
*1533 _1378_
*1534 _1379_
*1535 _1380_
*1536 _1381_
*1537 _1382_
*1538 _1383_
*1539 _1384_
*1540 FILLER_0_0
*1541 _1386_
*1542 _1387_
*1543 _1388_
*1544 _1389_
*1545 _1390_
*1546 _1391_
*1547 _1392_
*1548 _1393_
*1549 _1394_
*1550 _1395_
*1551 _1396_
*1552 _1397_
*1553 _1398_
*1554 _1399_
*1555 input1
*1556 input2
*1557 input3
*1558 input4
*1559 input5
*1560 input6
*1561 input7
*1562 input8
*1563 input9
*1564 input10
*1565 output11
*1566 output12
*1567 output13
*1568 output14
*1569 output15
*1570 output16
*1571 output17
*1572 output18
*1573 output19
*1574 output20
*1575 output21
*1576 output22
*1577 fanout23
*1578 fanout24
*1579 fanout25
*1580 fanout26
*1581 fanout27
*1582 fanout28
*1583 fanout29
*1584 fanout30
*1585 fanout31
*1586 fanout32
*1587 fanout33
*1588 fanout34
*1589 fanout35
*1590 fanout36
*1591 fanout37
*1592 fanout38
*1593 fanout39
*1594 fanout40
*1595 fanout41
*1596 fanout42
*1597 fanout43
*1598 fanout44
*1599 fanout45
*1600 fanout46
*1601 fanout47
*1602 fanout48
*1603 fanout49
*1604 fanout50
*1605 fanout51
*1606 fanout52
*1607 fanout53
*1608 fanout54
*1609 fanout55
*1610 fanout56
*1611 fanout57
*1612 fanout58
*1613 fanout59
*1614 fanout60
*1615 fanout61
*1616 fanout62
*1617 fanout63
*1618 fanout64
*1619 fanout65
*1620 fanout66
*1621 fanout67
*1622 fanout68
*1623 fanout69
*1624 fanout70
*1625 fanout71
*1626 fanout72
*1627 fanout73
*1628 fanout74
*1629 fanout75
*1630 fanout76
*1631 fanout77
*1632 fanout78
*1633 fanout79
*1634 fanout80
*1635 fanout81
*1636 fanout82
*1637 fanout83
*1638 fanout84
*1639 fanout85
*1640 fanout86
*1641 fanout87
*1642 fanout88
*1643 fanout89
*1644 fanout90
*1645 fanout91
*1646 fanout92
*1647 fanout93
*1648 fanout94
*1649 fanout95
*1650 fanout96
*1651 fanout97
*1652 _1388__98
*1653 _1389__99
*1654 _1390__100
*1655 _1391__101
*1656 _1392__102
*1657 _1393__103
*1658 _1394__104
*1659 _1395__105
*1660 _1396__106
*1661 _1397__107
*1662 _1398__108
*1663 _1399__109
*1664 FILLER_0_7
*1665 FILLER_0_14
*1666 FILLER_0_21
*1667 FILLER_0_28
*1668 FILLER_0_35
*1669 FILLER_0_42
*1670 FILLER_0_49
*1671 FILLER_0_56
*1672 FILLER_0_63
*1673 FILLER_0_70
*1674 FILLER_0_77
*1675 FILLER_0_84
*1676 FILLER_0_91
*1677 FILLER_0_98
*1678 FILLER_0_105
*1679 FILLER_0_112
*1680 FILLER_0_119
*1681 FILLER_0_126
*1682 FILLER_0_133
*1683 FILLER_0_140
*1684 FILLER_0_147
*1685 FILLER_0_154
*1686 FILLER_0_161
*1687 FILLER_0_168
*1688 FILLER_0_175
*1689 FILLER_0_182
*1690 FILLER_0_189
*1691 FILLER_0_196
*1692 FILLER_0_203
*1693 FILLER_0_210
*1694 FILLER_0_217
*1695 FILLER_0_224
*1696 FILLER_0_231
*1697 FILLER_0_238
*1698 FILLER_0_245
*1699 FILLER_0_252
*1700 FILLER_0_259
*1701 FILLER_0_266
*1702 FILLER_0_273
*1703 FILLER_0_280
*1704 FILLER_0_287
*1705 FILLER_0_294
*1706 FILLER_0_301
*1707 FILLER_0_308
*1708 FILLER_0_315
*1709 FILLER_0_322
*1710 FILLER_0_329
*1711 FILLER_0_336
*1712 FILLER_0_343
*1713 FILLER_0_350
*1714 FILLER_0_357
*1715 FILLER_0_364
*1716 FILLER_0_371
*1717 FILLER_0_378
*1718 FILLER_0_385
*1719 FILLER_0_392
*1720 FILLER_0_399
*1721 FILLER_0_406
*1722 FILLER_0_413
*1723 FILLER_0_420
*1724 FILLER_0_427
*1725 FILLER_0_429
*1726 FILLER_1_0
*1727 FILLER_1_7
*1728 FILLER_1_14
*1729 FILLER_1_21
*1730 FILLER_1_28
*1731 FILLER_1_35
*1732 FILLER_1_42
*1733 FILLER_1_49
*1734 FILLER_1_56
*1735 FILLER_1_63
*1736 FILLER_1_70
*1737 FILLER_1_77
*1738 FILLER_1_84
*1739 FILLER_1_91
*1740 FILLER_1_98
*1741 FILLER_1_105
*1742 FILLER_1_112
*1743 FILLER_1_119
*1744 FILLER_1_126
*1745 FILLER_1_133
*1746 FILLER_1_140
*1747 FILLER_1_147
*1748 FILLER_1_154
*1749 FILLER_1_161
*1750 FILLER_1_168
*1751 FILLER_1_175
*1752 FILLER_1_182
*1753 FILLER_1_189
*1754 FILLER_1_196
*1755 FILLER_1_203
*1756 FILLER_1_210
*1757 FILLER_1_217
*1758 FILLER_1_224
*1759 FILLER_1_231
*1760 FILLER_1_238
*1761 FILLER_1_245
*1762 FILLER_1_252
*1763 FILLER_1_259
*1764 FILLER_1_266
*1765 FILLER_1_273
*1766 FILLER_1_280
*1767 FILLER_1_287
*1768 FILLER_1_294
*1769 FILLER_1_301
*1770 FILLER_1_308
*1771 FILLER_1_315
*1772 FILLER_1_322
*1773 FILLER_1_329
*1774 FILLER_1_336
*1775 FILLER_1_343
*1776 FILLER_1_350
*1777 FILLER_1_357
*1778 FILLER_1_364
*1779 FILLER_1_371
*1780 FILLER_1_378
*1781 FILLER_1_385
*1782 FILLER_1_392
*1783 FILLER_1_399
*1784 FILLER_1_406
*1785 FILLER_1_413
*1786 FILLER_1_420
*1787 FILLER_1_427
*1788 FILLER_1_429
*1789 FILLER_2_0
*1790 FILLER_2_7
*1791 FILLER_2_14
*1792 FILLER_2_21
*1793 FILLER_2_28
*1794 FILLER_2_35
*1795 FILLER_2_42
*1796 FILLER_2_49
*1797 FILLER_2_56
*1798 FILLER_2_63
*1799 FILLER_2_70
*1800 FILLER_2_77
*1801 FILLER_2_84
*1802 FILLER_2_91
*1803 FILLER_2_98
*1804 FILLER_2_105
*1805 FILLER_2_112
*1806 FILLER_2_119
*1807 FILLER_2_126
*1808 FILLER_2_133
*1809 FILLER_2_140
*1810 FILLER_2_147
*1811 FILLER_2_154
*1812 FILLER_2_161
*1813 FILLER_2_168
*1814 FILLER_2_175
*1815 FILLER_2_182
*1816 FILLER_2_189
*1817 FILLER_2_196
*1818 FILLER_2_203
*1819 FILLER_2_210
*1820 FILLER_2_217
*1821 FILLER_2_224
*1822 FILLER_2_231
*1823 FILLER_2_238
*1824 FILLER_2_245
*1825 FILLER_2_252
*1826 FILLER_2_259
*1827 FILLER_2_266
*1828 FILLER_2_273
*1829 FILLER_2_280
*1830 FILLER_2_287
*1831 FILLER_2_294
*1832 FILLER_2_301
*1833 FILLER_2_308
*1834 FILLER_2_315
*1835 FILLER_2_322
*1836 FILLER_2_329
*1837 FILLER_2_336
*1838 FILLER_2_343
*1839 FILLER_2_350
*1840 FILLER_2_357
*1841 FILLER_2_364
*1842 FILLER_2_371
*1843 FILLER_2_378
*1844 FILLER_2_385
*1845 FILLER_2_392
*1846 FILLER_2_399
*1847 FILLER_2_406
*1848 FILLER_2_413
*1849 FILLER_2_420
*1850 FILLER_2_427
*1851 FILLER_2_429
*1852 FILLER_3_0
*1853 FILLER_3_7
*1854 FILLER_3_14
*1855 FILLER_3_21
*1856 FILLER_3_28
*1857 FILLER_3_35
*1858 FILLER_3_42
*1859 FILLER_3_49
*1860 FILLER_3_56
*1861 FILLER_3_63
*1862 FILLER_3_70
*1863 FILLER_3_77
*1864 FILLER_3_84
*1865 FILLER_3_91
*1866 FILLER_3_98
*1867 FILLER_3_105
*1868 FILLER_3_112
*1869 FILLER_3_119
*1870 FILLER_3_126
*1871 FILLER_3_133
*1872 FILLER_3_140
*1873 FILLER_3_147
*1874 FILLER_3_154
*1875 FILLER_3_161
*1876 FILLER_3_168
*1877 FILLER_3_175
*1878 FILLER_3_182
*1879 FILLER_3_189
*1880 FILLER_3_196
*1881 FILLER_3_203
*1882 FILLER_3_210
*1883 FILLER_3_217
*1884 FILLER_3_224
*1885 FILLER_3_231
*1886 FILLER_3_238
*1887 FILLER_3_245
*1888 FILLER_3_252
*1889 FILLER_3_259
*1890 FILLER_3_266
*1891 FILLER_3_273
*1892 FILLER_3_280
*1893 FILLER_3_287
*1894 FILLER_3_294
*1895 FILLER_3_301
*1896 FILLER_3_308
*1897 FILLER_3_315
*1898 FILLER_3_322
*1899 FILLER_3_329
*1900 FILLER_3_336
*1901 FILLER_3_343
*1902 FILLER_3_350
*1903 FILLER_3_357
*1904 FILLER_3_364
*1905 FILLER_3_371
*1906 FILLER_3_378
*1907 FILLER_3_385
*1908 FILLER_3_392
*1909 FILLER_3_399
*1910 FILLER_3_406
*1911 FILLER_3_413
*1912 FILLER_3_420
*1913 FILLER_3_427
*1914 FILLER_3_429
*1915 FILLER_4_0
*1916 FILLER_4_7
*1917 FILLER_4_14
*1918 FILLER_4_21
*1919 FILLER_4_28
*1920 FILLER_4_35
*1921 FILLER_4_42
*1922 FILLER_4_49
*1923 FILLER_4_56
*1924 FILLER_4_63
*1925 FILLER_4_70
*1926 FILLER_4_77
*1927 FILLER_4_84
*1928 FILLER_4_91
*1929 FILLER_4_98
*1930 FILLER_4_105
*1931 FILLER_4_112
*1932 FILLER_4_119
*1933 FILLER_4_126
*1934 FILLER_4_133
*1935 FILLER_4_140
*1936 FILLER_4_147
*1937 FILLER_4_154
*1938 FILLER_4_161
*1939 FILLER_4_168
*1940 FILLER_4_175
*1941 FILLER_4_182
*1942 FILLER_4_189
*1943 FILLER_4_196
*1944 FILLER_4_203
*1945 FILLER_4_210
*1946 FILLER_4_217
*1947 FILLER_4_224
*1948 FILLER_4_231
*1949 FILLER_4_238
*1950 FILLER_4_245
*1951 FILLER_4_252
*1952 FILLER_4_259
*1953 FILLER_4_266
*1954 FILLER_4_273
*1955 FILLER_4_280
*1956 FILLER_4_287
*1957 FILLER_4_294
*1958 FILLER_4_301
*1959 FILLER_4_308
*1960 FILLER_4_315
*1961 FILLER_4_322
*1962 FILLER_4_329
*1963 FILLER_4_336
*1964 FILLER_4_343
*1965 FILLER_4_350
*1966 FILLER_4_357
*1967 FILLER_4_364
*1968 FILLER_4_371
*1969 FILLER_4_378
*1970 FILLER_4_385
*1971 FILLER_4_392
*1972 FILLER_4_399
*1973 FILLER_4_406
*1974 FILLER_4_413
*1975 FILLER_4_420
*1976 FILLER_4_427
*1977 FILLER_4_429
*1978 FILLER_5_0
*1979 FILLER_5_7
*1980 FILLER_5_14
*1981 FILLER_5_21
*1982 FILLER_5_28
*1983 FILLER_5_35
*1984 FILLER_5_42
*1985 FILLER_5_49
*1986 FILLER_5_56
*1987 FILLER_5_63
*1988 FILLER_5_70
*1989 FILLER_5_77
*1990 FILLER_5_84
*1991 FILLER_5_91
*1992 FILLER_5_98
*1993 FILLER_5_105
*1994 FILLER_5_112
*1995 FILLER_5_119
*1996 FILLER_5_126
*1997 FILLER_5_133
*1998 FILLER_5_140
*1999 FILLER_5_147
*2000 FILLER_5_154
*2001 FILLER_5_161
*2002 FILLER_5_168
*2003 FILLER_5_175
*2004 FILLER_5_182
*2005 FILLER_5_189
*2006 FILLER_5_196
*2007 FILLER_5_203
*2008 FILLER_5_210
*2009 FILLER_5_217
*2010 FILLER_5_224
*2011 FILLER_5_231
*2012 FILLER_5_238
*2013 FILLER_5_245
*2014 FILLER_5_252
*2015 FILLER_5_259
*2016 FILLER_5_266
*2017 FILLER_5_273
*2018 FILLER_5_280
*2019 FILLER_5_287
*2020 FILLER_5_294
*2021 FILLER_5_301
*2022 FILLER_5_308
*2023 FILLER_5_315
*2024 FILLER_5_322
*2025 FILLER_5_329
*2026 FILLER_5_336
*2027 FILLER_5_343
*2028 FILLER_5_350
*2029 FILLER_5_357
*2030 FILLER_5_364
*2031 FILLER_5_371
*2032 FILLER_5_378
*2033 FILLER_5_385
*2034 FILLER_5_392
*2035 FILLER_5_399
*2036 FILLER_5_406
*2037 FILLER_5_413
*2038 FILLER_5_420
*2039 FILLER_5_427
*2040 FILLER_5_429
*2041 FILLER_6_0
*2042 FILLER_6_7
*2043 FILLER_6_14
*2044 FILLER_6_21
*2045 FILLER_6_28
*2046 FILLER_6_35
*2047 FILLER_6_42
*2048 FILLER_6_49
*2049 FILLER_6_56
*2050 FILLER_6_63
*2051 FILLER_6_70
*2052 FILLER_6_77
*2053 FILLER_6_84
*2054 FILLER_6_91
*2055 FILLER_6_98
*2056 FILLER_6_105
*2057 FILLER_6_112
*2058 FILLER_6_119
*2059 FILLER_6_126
*2060 FILLER_6_133
*2061 FILLER_6_140
*2062 FILLER_6_147
*2063 FILLER_6_154
*2064 FILLER_6_161
*2065 FILLER_6_168
*2066 FILLER_6_175
*2067 FILLER_6_182
*2068 FILLER_6_189
*2069 FILLER_6_196
*2070 FILLER_6_203
*2071 FILLER_6_210
*2072 FILLER_6_217
*2073 FILLER_6_224
*2074 FILLER_6_231
*2075 FILLER_6_238
*2076 FILLER_6_245
*2077 FILLER_6_252
*2078 FILLER_6_259
*2079 FILLER_6_266
*2080 FILLER_6_273
*2081 FILLER_6_280
*2082 FILLER_6_287
*2083 FILLER_6_294
*2084 FILLER_6_301
*2085 FILLER_6_308
*2086 FILLER_6_315
*2087 FILLER_6_322
*2088 FILLER_6_329
*2089 FILLER_6_336
*2090 FILLER_6_343
*2091 FILLER_6_350
*2092 FILLER_6_357
*2093 FILLER_6_364
*2094 FILLER_6_371
*2095 FILLER_6_378
*2096 FILLER_6_385
*2097 FILLER_6_392
*2098 FILLER_6_399
*2099 FILLER_6_406
*2100 FILLER_6_413
*2101 FILLER_6_420
*2102 FILLER_6_427
*2103 FILLER_6_429
*2104 FILLER_7_0
*2105 FILLER_7_7
*2106 FILLER_7_14
*2107 FILLER_7_21
*2108 FILLER_7_28
*2109 FILLER_7_35
*2110 FILLER_7_42
*2111 FILLER_7_49
*2112 FILLER_7_56
*2113 FILLER_7_63
*2114 FILLER_7_70
*2115 FILLER_7_77
*2116 FILLER_7_84
*2117 FILLER_7_91
*2118 FILLER_7_98
*2119 FILLER_7_105
*2120 FILLER_7_112
*2121 FILLER_7_119
*2122 FILLER_7_126
*2123 FILLER_7_133
*2124 FILLER_7_140
*2125 FILLER_7_147
*2126 FILLER_7_154
*2127 FILLER_7_161
*2128 FILLER_7_168
*2129 FILLER_7_175
*2130 FILLER_7_182
*2131 FILLER_7_189
*2132 FILLER_7_196
*2133 FILLER_7_203
*2134 FILLER_7_210
*2135 FILLER_7_217
*2136 FILLER_7_224
*2137 FILLER_7_231
*2138 FILLER_7_238
*2139 FILLER_7_245
*2140 FILLER_7_252